###
### Created by PolyChef-cpp17 on Wed Apr 16 20:55:45 2025
###

@<TRIPOS>MOLECULE
NO_INFO
4312 5394 1 0 0
SMALL
USER_CHARGES


@<TRIPOS>ATOM
      1 C           7.8050    0.8578    0.1332 C.2       0      C_A    0.0000
      2 C           9.1695    0.9879    0.8108 C.2       0      C_A    0.0000
      3 C           8.0022    5.7041   -0.2712 C.2       0      C_A    0.0000
      4 C           8.8352    3.4065    0.2675 C.2       0      C_A    0.0000
      5 C           9.3919    2.4208    1.2947 C.2       0      C_A    0.0000
      6 C           8.8104    2.6217    2.6899 C.2       0      C_A    0.0000
      7 C           9.2998   -0.0827    1.8878 C.2       0      C_A    0.0000
      8 C           9.8423    0.3514    3.2399 C.2       0      C_A    0.0000
      9 C           6.6814    6.2903    0.2134 C.2       0      C_A    0.0000
     10 C           6.8565    7.0878    1.5046 C.2       0      C_A    0.0000
     11 C           8.6645    4.8291    0.7862 C.2       0      C_A    0.0000
     12 C           7.9359    4.8476    2.1276 C.2       0      C_A    0.0000
     13 C           8.8495    4.0950    3.0834 C.2       0      C_A    0.0000
     14 C           8.6921    4.4274    4.5584 C.2       0      C_A    0.0000
     15 C           9.5729    1.7778    3.6970 C.2       0      C_A    0.0000
     16 C           8.8468    1.9161    5.0246 C.2       0      C_A    0.0000
     17 C           9.2165    0.8982    6.0896 C.2       0      C_A    0.0000
     18 C           9.6863    1.5009    7.4086 C.2       0      C_A    0.0000
     19 C           2.4721    8.8206    0.3902 C.2       0      C_A    0.0000
     20 C           5.8579    9.7304    0.5953 C.2       0      C_A    0.0000
     21 C           4.9030    8.6018    0.9720 C.2       0      C_A    0.0000
     22 C           5.5150    7.6332    1.9837 C.2       0      C_A    0.0000
     23 C           5.6120    8.2628    3.3679 C.2       0      C_A    0.0000
     24 C           7.6296    6.2776    2.5401 C.2       0      C_A    0.0000
     25 C           7.3779    6.5396    4.0134 C.2       0      C_A    0.0000
     26 C           7.5455    5.3443    4.9463 C.2       0      C_A    0.0000
     27 C           7.7398    5.9005    6.3582 C.2       0      C_A    0.0000
     28 C           8.9903    3.3297    5.5695 C.2       0      C_A    0.0000
     29 C           8.1738    3.4547    6.8511 C.2       0      C_A    0.0000
     30 C           8.5485    2.3959    7.8873 C.2       0      C_A    0.0000
     31 C           8.8396    2.9460    9.2737 C.2       0      C_A    0.0000
     32 C          10.0518    0.3952    8.3982 C.2       0      C_A    0.0000
     33 C           9.9711    0.7607    9.8760 C.2       0      C_A    0.0000
     34 C          -2.3698    8.4340   -0.7041 C.2       0      C_A    0.0000
     35 C           0.0355    8.8237   -0.1705 C.2       0      C_A    0.0000
     36 C           1.0850    9.2825    0.8409 C.2       0      C_A    0.0000
     37 C           0.7788    8.7410    2.2355 C.2       0      C_A    0.0000
     38 C           3.5507    9.1538    1.4170 C.2       0      C_A    0.0000
     39 C           3.1688    8.6218    2.7923 C.2       0      C_A    0.0000
     40 C           4.2881    8.9069    3.7875 C.2       0      C_A    0.0000
     41 C           3.8554    8.4644    5.1792 C.2       0      C_A    0.0000
     42 C           6.0602    7.2109    4.3729 C.2       0      C_A    0.0000
     43 C           6.2042    7.8053    5.7715 C.2       0      C_A    0.0000
     44 C           6.5331    6.7257    6.7995 C.2       0      C_A    0.0000
     45 C           6.7599    7.3598    8.1685 C.2       0      C_A    0.0000
     46 C           8.1869    4.8741    7.3964 C.2       0      C_A    0.0000
     47 C           7.3668    4.9572    8.6763 C.2       0      C_A    0.0000
     48 C           7.7483    3.9131    9.7206 C.2       0      C_A    0.0000
     49 C           8.1073    4.4954   11.0830 C.2       0      C_A    0.0000
     50 C           8.9015    1.7778   10.2563 C.2       0      C_A    0.0000
     51 C           9.2153    2.2933   11.6580 C.2       0      C_A    0.0000
     52 C           9.1391    1.1566   12.6691 C.2       0      C_A    0.0000
     53 C           9.5737    1.6840   14.0369 C.2       0      C_A    0.0000
     54 C          -3.8100    8.4090   -0.2019 C.2       0      C_A    0.0000
     55 C          -3.8566    7.7037    1.1495 C.2       0      C_A    0.0000
     56 C          -1.3999    9.0580    0.2995 C.2       0      C_A    0.0000
     57 C          -1.5882    8.4571    1.6907 C.2       0      C_A    0.0000
     58 C          -0.6312    9.1183    2.6771 C.2       0      C_A    0.0000
     59 C          -0.8917    8.6417    4.1057 C.2       0      C_A    0.0000
     60 C           1.8327    9.2197    3.2267 C.2       0      C_A    0.0000
     61 C           1.4775    8.7634    4.6381 C.2       0      C_A    0.0000
     62 C           2.5776    9.1862    5.5998 C.2       0      C_A    0.0000
     63 C           2.2253    8.7707    7.0209 C.2       0      C_A    0.0000
     64 C           4.9939    8.6405    6.1754 C.2       0      C_A    0.0000
     65 C           4.5208    8.3173    7.5877 C.2       0      C_A    0.0000
     66 C           5.6748    8.3631    8.5737 C.2       0      C_A    0.0000
     67 C           5.0940    8.1398    9.9594 C.2       0      C_A    0.0000
     68 C           7.2999    6.3820    9.2111 C.2       0      C_A    0.0000
     69 C           6.5410    6.4141   10.5253 C.2       0      C_A    0.0000
     70 C           7.0195    5.4378   11.5766 C.2       0      C_A    0.0000
     71 C           7.3806    6.0647   12.9141 C.2       0      C_A    0.0000
     72 C           8.2201    3.3630   12.0981 C.2       0      C_A    0.0000
     73 C           8.5657    3.9071   13.4834 C.2       0      C_A    0.0000
     74 C           8.6100    2.7682   14.4999 C.2       0      C_A    0.0000
     75 C           8.9422    3.3287   15.8799 C.2       0      C_A    0.0000
     76 C           9.7385    0.5611   15.0518 C.2       0      C_A    0.0000
     77 C           9.1061    0.8371   16.4044 C.2       0      C_A    0.0000
     78 C           9.2285    0.0725   18.8129 C.2       0      C_A    0.0000
     79 C          -7.4325    4.5468    0.1003 C.2       0      C_A    0.0000
     80 C          -5.8706    6.3977    0.6059 C.2       0      C_A    0.0000
     81 C          -5.2787    7.3890    1.6064 C.2       0      C_A    0.0000
     82 C          -5.2252    6.7807    3.0050 C.2       0      C_A    0.0000
     83 C          -3.0419    8.5118    2.1511 C.2       0      C_A    0.0000
     84 C          -3.1369    7.9487    3.5640 C.2       0      C_A    0.0000
     85 C          -2.3486    8.8739    4.4790 C.2       0      C_A    0.0000
     86 C          -2.6908    8.7740    5.9561 C.2       0      C_A    0.0000
     87 C           0.1026    9.2679    5.0719 C.2       0      C_A    0.0000
     88 C          -0.1983    8.7633    6.4786 C.2       0      C_A    0.0000
     89 C           0.8550    9.2423    7.4774 C.2       0      C_A    0.0000
     90 C           0.5791    8.5597    8.8102 C.2       0      C_A    0.0000
     91 C           3.3523    9.2303    7.9323 C.2       0      C_A    0.0000
     92 C           2.9674    9.3508    9.3974 C.2       0      C_A    0.0000
     93 C           4.1029    9.2021   10.4031 C.2       0      C_A    0.0000
     94 C           3.5760    8.7283   11.7539 C.2       0      C_A    0.0000
     95 C           6.2172    7.8382   10.9329 C.2       0      C_A    0.0000
     96 C           5.9311    8.0807   12.4023 C.2       0      C_A    0.0000
     97 C           6.2218    6.9423   13.3622 C.2       0      C_A    0.0000
     98 C           6.4730    7.5218   14.7504 C.2       0      C_A    0.0000
     99 C           7.5229    4.9305   13.9240 C.2       0      C_A    0.0000
    100 C           7.7862    5.4585   15.3321 C.2       0      C_A    0.0000
    101 C           7.8169    4.2707   16.2845 C.2       0      C_A    0.0000
    102 C           7.6681    4.6273   17.7546 C.2       0      C_A    0.0000
    103 C           9.3183    2.2613   16.8936 C.2       0      C_A    0.0000
    104 C           8.6579    2.3999   18.2586 C.2       0      C_A    0.0000
    105 C           9.4721    1.5205   19.1998 C.2       0      C_A    0.0000
    106 C           9.2907    1.8001   20.6755 C.2       0      C_A    0.0000
    107 C          -8.7129    2.4550   -0.3635 C.2       0      C_A    0.0000
    108 C          -8.6223    3.6922    0.5274 C.2       0      C_A    0.0000
    109 C          -8.5040    3.2488    1.9847 C.2       0      C_A    0.0000
    110 C          -7.1505    5.7014    1.0599 C.2       0      C_A    0.0000
    111 C          -7.0087    5.1577    2.4769 C.2       0      C_A    0.0000
    112 C          -6.5974    6.2699    3.4373 C.2       0      C_A    0.0000
    113 C          -6.5116    5.7244    4.8587 C.2       0      C_A    0.0000
    114 C          -4.5735    7.7365    4.0074 C.2       0      C_A    0.0000
    115 C          -4.5739    7.0957    5.3906 C.2       0      C_A    0.0000
    116 C          -3.6451    7.6931    6.4327 C.2       0      C_A    0.0000
    117 C          -4.3033    8.0756    7.7547 C.2       0      C_A    0.0000
    118 C          -1.6017    9.1203    6.9624 C.2       0      C_A    0.0000
    119 C          -1.8413    8.4142    8.2974 C.2       0      C_A    0.0000
    120 C          -0.8170    8.8738    9.3333 C.2       0      C_A    0.0000
    121 C          -1.0223    8.1426   10.6534 C.2       0      C_A    0.0000
    122 C           1.6841    8.6734    9.8513 C.2       0      C_A    0.0000
    123 C           1.1946    9.2969   11.1544 C.2       0      C_A    0.0000
    124 C           2.3005    9.4365   12.1979 C.2       0      C_A    0.0000
    125 C           1.8781    8.8959   13.5643 C.2       0      C_A    0.0000
    126 C           4.6822    8.8625   12.7881 C.2       0      C_A    0.0000
    127 C           4.1985    8.4191   14.1666 C.2       0      C_A    0.0000
    128 C           5.3609    8.4913   15.1430 C.2       0      C_A    0.0000
    129 C           5.0265    8.6150   16.6196 C.2       0      C_A    0.0000
    130 C           6.6587    6.3905   15.7500 C.2       0      C_A    0.0000
    131 C           6.9162    7.0233   17.1069 C.2       0      C_A    0.0000
    132 C           7.6243    6.1103   18.0976 C.2       0      C_A    0.0000
    133 C           7.3789    6.4355   19.5676 C.2       0      C_A    0.0000
    134 C           8.5805    3.8517   18.6970 C.2       0      C_A    0.0000
    135 C           7.9151    3.9593   20.0599 C.2       0      C_A    0.0000
    136 C           8.3079    2.8904   21.0666 C.2       0      C_A    0.0000
    137 C           8.7017    3.3953   22.4454 C.2       0      C_A    0.0000
    138 C           9.0535    0.5850   21.5691 C.2       0      C_A    0.0000
    139 C           9.4104    1.0000   22.9946 C.2       0      C_A    0.0000
    140 C           9.4546    0.2357   25.3865 C.2       0      C_A    0.0000
    141 C          -7.5319   -0.8891    0.1403 C.2       0      C_A    0.0000
    142 C          -8.8942   -1.0000    0.8239 C.2       0      C_A    0.0000
    143 C          -9.9204    1.5938   -0.0098 C.2       0      C_A    0.0000
    144 C          -9.9444    1.2363    1.4696 C.2       0      C_A    0.0000
    145 C          -9.7438    2.4497    2.3742 C.2       0      C_A    0.0000
    146 C          -9.8225    2.0852    3.8519 C.2       0      C_A    0.0000
    147 C          -8.2995    4.4569    2.8963 C.2       0      C_A    0.0000
    148 C          -8.1720    3.9694    4.3323 C.2       0      C_A    0.0000
    149 C          -7.8248    5.1018    5.3017 C.2       0      C_A    0.0000
    150 C          -7.5952    4.4867    6.6737 C.2       0      C_A    0.0000
    151 C          -6.0123    6.8202    5.7881 C.2       0      C_A    0.0000
    152 C          -6.3339    6.6717    7.2625 C.2       0      C_A    0.0000
    153 C          -5.2083    6.9530    8.2434 C.2       0      C_A    0.0000
    154 C          -5.8234    7.2385    9.6090 C.2       0      C_A    0.0000
    155 C          -3.2793    8.5052    8.8070 C.2       0      C_A    0.0000
    156 C          -3.4101    7.7254   10.1164 C.2       0      C_A    0.0000
    157 C          -2.4510    8.3013   11.1509 C.2       0      C_A    0.0000
    158 C          -2.5814    7.6263   12.5099 C.2       0      C_A    0.0000
    159 C           0.0083    8.5239   11.7092 C.2       0      C_A    0.0000
    160 C          -0.5657    9.1432   12.9719 C.3       0      C_A    0.0000
    161 C           0.5154    9.4124   14.0069 C.2       0      C_A    0.0000
    162 C           0.1549    8.8724   15.3919 C.2       0      C_A    0.0000
    163 C           2.9619    9.1932   14.5965 C.2       0      C_A    0.0000
    164 C           2.5503    8.7156   15.9847 C.2       0      C_A    0.0000
    165 C           3.6293    9.0936   16.9907 C.2       0      C_A    0.0000
    166 C           3.2353    8.6192   18.3876 C.2       0      C_A    0.0000
    167 C           5.5688    7.5564   17.5681 C.2       0      C_A    0.0000
    168 C           5.6500    8.1169   18.9819 C.2       0      C_A    0.0000
    169 C           5.9803    6.9522   19.9074 C.2       0      C_A    0.0000
    170 C           5.9060    7.4366   21.3503 C.2       0      C_A    0.0000
    171 C           7.9471    5.4046   20.5336 C.2       0      C_A    0.0000
    172 C           7.6295    5.6646   21.9918 C.2       0      C_A    0.0000
    173 C           7.6802    4.4305   22.8754 C.2       0      C_A    0.0000
    174 C           7.9087    4.9209   24.2955 C.2       0      C_A    0.0000
    175 C           8.5993    2.2219   23.4172 C.2       0      C_A    0.0000
    176 C           8.9589    2.6647   24.8303 C.2       0      C_A    0.0000
    177 C           8.7413    1.5139   25.8049 C.2       0      C_A    0.0000
    178 C           9.1540    1.9466   27.2069 C.2       0      C_A    0.0000
    179 C          -8.3027   -5.9229   -0.1885 C.2       0      C_A    0.0000
    180 C          -8.6730   -3.4407    0.2980 C.2       0      C_A    0.0000
    181 C          -9.1352   -2.4194    1.3351 C.2       0      C_A    0.0000
    182 C          -8.4979   -2.6225    2.7058 C.2       0      C_A    0.0000
    183 C          -9.0258    0.0898    1.8817 C.2       0      C_A    0.0000
    184 C          -9.5463   -0.3456    3.2421 C.2       0      C_A    0.0000
    185 C          -9.2352    0.7375    4.2609 C.2       0      C_A    0.0000
    186 C          -9.8091    0.2993    5.6029 C.2       0      C_A    0.0000
    187 C          -9.3993    3.1958    4.8051 C.2       0      C_A    0.0000
    188 C          -9.0237    2.6044    6.1582 C.2       0      C_A    0.0000
    189 C          -8.8093    3.7198    7.1727 C.2       0      C_A    0.0000
    190 C          -8.5028    3.1364    8.5422 C.2       0      C_A    0.0000
    191 C          -6.9220    5.3538    7.7178 C.2       0      C_A    0.0000
    192 C          -7.7177    5.5363    9.0021 C.2       0      C_A    0.0000
    193 C          -6.9910    6.3683   10.0561 C.2       0      C_A    0.0000
    194 C          -6.9120    5.7083   11.4304 C.2       0      C_A    0.0000
    195 C          -4.8331    7.7014   10.6660 C.2       0      C_A    0.0000
    196 C          -4.8681    6.9106   11.9726 C.2       0      C_A    0.0000
    197 C          -4.0192    7.6385   13.0089 C.2       0      C_A    0.0000
    198 C          -4.1022    6.9827   14.3839 C.2       0      C_A    0.0000
    199 C          -1.6185    8.2079   13.5344 C.2       0      C_A    0.0000
    200 C          -2.2961    8.7216   14.7981 C.2       0      C_A    0.0000
    201 C          -1.2605    9.2954   15.7602 C.2       0      C_A    0.0000
    202 C          -1.6310    9.3170   17.2342 C.2       0      C_A    0.0000
    203 C           1.2091    9.3254   16.3932 C.2       0      C_A    0.0000
    204 C           0.8298    8.8862   17.8037 C.2       0      C_A    0.0000
    205 C           1.9292    9.2929   18.7864 C.2       0      C_A    0.0000
    206 C           1.5927    8.9557   20.2365 C.2       0      C_A    0.0000
    207 C           4.3896    8.9014   19.3384 C.2       0      C_A    0.0000
    208 C           4.0692    9.0701   20.8151 C.2       0      C_A    0.0000
    209 C           4.4866    7.8969   21.6896 C.2       0      C_A    0.0000
    210 C           4.3999    8.3676   23.1398 C.2       0      C_A    0.0000
    211 C           6.2763    6.2965   22.2855 C.2       0      C_A    0.0000
    212 C           6.3083    6.8179   23.7180 C.2       0      C_A    0.0000
    213 C           6.6716    5.7104   24.6993 C.2       0      C_A    0.0000
    214 C           6.8361    6.2908   26.0954 C.2       0      C_A    0.0000
    215 C           7.9894    3.7549   25.2659 C.2       0      C_A    0.0000
    216 C           8.3094    4.2810   26.6592 C.2       0      C_A    0.0000
    217 C           8.2847    3.1229   27.6441 C.2       0      C_A    0.0000
    218 C           8.6762    3.5919   29.0364 C.2       0      C_A    0.0000
    219 C           8.8932    0.8070   28.1820 C.2       0      C_A    0.0000
    220 C           9.2503    1.2089   29.6098 C.2       0      C_A    0.0000
    221 C           8.7675    0.0894   30.5111 C.2       0      C_A    0.0000
    222 C           8.6204    0.4199   31.9839 C.2       0      C_A    0.0000
    223 C          -6.9806   -6.6013    0.1486 C.2       0      C_A    0.0000
    224 C          -7.0257   -7.2740    1.5204 C.2       0      C_A    0.0000
    225 C          -8.6946   -4.8650    0.8396 C.2       0      C_A    0.0000
    226 C          -7.8780   -4.9640    2.1265 C.2       0      C_A    0.0000
    227 C          -8.5720   -4.0820    3.1555 C.2       0      C_A    0.0000
    228 C          -8.0176   -4.2788    4.5655 C.2       0      C_A    0.0000
    229 C          -9.2369   -1.7546    3.7145 C.2       0      C_A    0.0000
    230 C          -8.6327   -1.9172    5.1019 C.2       0      C_A    0.0000
    231 C          -9.0288   -0.8869    6.1532 C.2       0      C_A    0.0000
    232 C          -9.6937   -1.4040    7.4206 C.2       0      C_A    0.0000
    233 C          -9.9006    1.4437    6.6091 C.2       0      C_A    0.0000
    234 C          -9.4544    1.0077    8.0002 C.2       0      C_A    0.0000
    235 C          -9.6105    2.1799    8.9566 C.2       0      C_A    0.0000
    236 C          -9.6078    1.8443   10.4339 C.2       0      C_A    0.0000
    237 C          -8.0608    4.1673    9.5629 C.2       0      C_A    0.0000
    238 C          -8.8562    4.1747   10.8572 C.2       0      C_A    0.0000
    239 C          -8.2992    5.2141   11.8268 C.2       0      C_A    0.0000
    240 C          -8.5616    4.9557   13.3050 C.2       0      C_A    0.0000
    241 C          -6.2942    6.6617   12.4458 C.2       0      C_A    0.0000
    242 C          -6.3379    6.0507   13.8471 C.2       0      C_A    0.0000
    243 C          -5.5563    6.9200   14.8345 C.2       0      C_A    0.0000
    244 C          -5.6929    6.3809   16.2541 C.2       0      C_A    0.0000
    245 C          -3.1394    7.6020   15.3962 C.2       0      C_A    0.0000
    246 C          -3.7913    8.0832   16.6829 C.2       0      C_A    0.0000
    247 C          -2.6983    8.3485   17.7184 C.2       0      C_A    0.0000
    248 C          -3.3003    8.8565   19.0291 C.2       0      C_A    0.0000
    249 C          -0.4958    9.5060   18.2320 C.2       0      C_A    0.0000
    250 C          -0.8297    8.9551   19.6163 C.2       0      C_A    0.0000
    251 C           0.2083    9.4841   20.6022 C.2       0      C_A    0.0000
    252 C          -0.0829    9.1232   22.0552 C.2       0      C_A    0.0000
    253 C           2.6652    9.5851   21.1190 C.2       0      C_A    0.0000
    254 C           2.3302    9.7159   22.6028 C.2       0      C_A    0.0000
    255 C           2.9524    8.6686   23.5164 C.2       0      C_A    0.0000
    256 C           2.8792    9.2019   24.9462 C.2       0      C_A    0.0000
    257 C           4.9278    7.3217   24.1128 C.2       0      C_A    0.0000
    258 C           4.9791    7.9115   25.5186 C.2       0      C_A    0.0000
    259 C           5.4958    6.8801   26.5152 C.2       0      C_A    0.0000
    260 C           5.5961    7.5002   27.9016 C.2       0      C_A    0.0000
    261 C           7.1767    5.1970   27.1004 C.2       0      C_A    0.0000
    262 C           7.4346    5.8317   28.4591 C.2       0      C_A    0.0000
    263 C           7.9757    4.8600   29.5014 C.2       0      C_A    0.0000
    264 C           7.2284    4.8400   30.8289 C.2       0      C_A    0.0000
    265 C           8.4572    2.4458   30.0107 C.2       0      C_A    0.0000
    266 C           8.8341    2.9231   31.4010 C.2       0      C_A    0.0000
    267 C           9.0702    1.8110   32.4118 C.2       0      C_A    0.0000
    268 C           8.4526    2.0986   33.7786 C.2       0      C_A    0.0000
    269 C          -2.4982   -8.4893    0.3595 C.2       0      C_A    0.0000
    270 C          -5.7661   -9.8371    0.7102 C.2       0      C_A    0.0000
    271 C          -4.9344   -8.5878    0.9845 C.2       0      C_A    0.0000
    272 C          -5.6146   -7.6406    1.9718 C.2       0      C_A    0.0000
    273 C          -5.6057   -8.1966    3.3910 C.2       0      C_A    0.0000
    274 C          -7.7970   -6.4293    2.5299 C.2       0      C_A    0.0000
    275 C          -7.5503   -6.7334    3.9982 C.2       0      C_A    0.0000
    276 C          -8.1875   -5.7414    4.9627 C.2       0      C_A    0.0000
    277 C          -7.8963   -6.0396    6.4265 C.2       0      C_A    0.0000
    278 C          -8.7995   -3.3739    5.5200 C.2       0      C_A    0.0000
    279 C          -8.3634   -3.5559    6.9629 C.2       0      C_A    0.0000
    280 C          -9.2967   -2.7901    7.8965 C.2       0      C_A    0.0000
    281 C          -8.8498   -2.9202    9.3487 C.2       0      C_A    0.0000
    282 C         -10.0150   -0.3288    8.4595 C.2       0      C_A    0.0000
    283 C          -9.4496   -0.6185    9.8456 C.2       0      C_A    0.0000
    284 C          -9.9050    0.4191   10.8669 C.2       0      C_A    0.0000
    285 C          -9.2045    0.0775   12.1666 C.2       0      C_A    0.0000
    286 C          -8.7796    2.7350   11.3490 C.2       0      C_A    0.0000
    287 C          -9.2639    2.5985   12.7798 C.2       0      C_A    0.0000
    288 C          -8.4540    3.4925   13.7159 C.2       0      C_A    0.0000
    289 C          -8.9663    3.3234   15.1457 C.2       0      C_A    0.0000
    290 C          -7.8030    5.8926   14.2402 C.2       0      C_A    0.0000
    291 C          -8.0622    5.6179   15.7174 C.2       0      C_A    0.0000
    292 C          -7.1638    6.4251   16.6481 C.2       0      C_A    0.0000
    293 C          -7.4726    6.1966   18.1201 C.2       0      C_A    0.0000
    294 C          -4.7399    7.0362   17.2514 C.2       0      C_A    0.0000
    295 C          -5.3844    7.5608   18.5301 C.2       0      C_A    0.0000
    296 C          -4.3011    7.8461   19.5719 C.2       0      C_A    0.0000
    297 C          -4.9286    8.2717   20.8975 C.2       0      C_A    0.0000
    298 C          -2.2527    9.2784   20.0570 C.2       0      C_A    0.0000
    299 C          -2.4722    8.6889   21.4477 C.2       0      C_A    0.0000
    300 C          -1.5364    9.3952   22.4281 C.2       0      C_A    0.0000
    301 C          -1.7301    8.9321   23.8682 C.2       0      C_A    0.0000
    302 C           0.8568    9.9492   22.9254 C.2       0      C_A    0.0000
    303 C           0.5160   10.0215   24.4108 C.2       0      C_A    0.0000
    304 C           1.4246    9.2859   25.3819 C.2       0      C_A    0.0000
    305 C           1.3111    9.8983   26.7786 C.2       0      C_A    0.0000
    306 C           3.5664    8.2798   25.9474 C.2       0      C_A    0.0000
    307 C           3.5554    8.8979   27.3443 C.2       0      C_A    0.0000
    308 C           4.2122    7.9611   28.3516 C.2       0      C_A    0.0000
    309 C           4.3193    8.6241   29.7186 C.2       0      C_A    0.0000
    310 C           6.1327    6.4875   28.9107 C.2       0      C_A    0.0000
    311 C           6.2671    7.1651   30.2666 C.2       0      C_A    0.0000
    312 C           7.0003    6.2780   31.2597 C.2       0      C_A    0.0000
    313 C           6.8166    6.6013   32.7247 C.2       0      C_A    0.0000
    314 C           7.8026    3.9188   31.9003 C.2       0      C_A    0.0000
    315 C           8.2815    4.5770   33.1883 C.2       0      C_A    0.0000
    316 C           8.6762    3.5345   34.2388 C.2       0      C_A    0.0000
    317 C           8.0312    3.7383   35.6126 C.2       0      C_A    0.0000
    318 C           8.9960    1.0942   34.7926 C.2       0      C_A    0.0000
    319 C           8.4567    1.3411   36.1989 C.2       0      C_A    0.0000
    320 C           9.1301    0.3457   37.1446 C.2       0      C_A    0.0000
    321 C           8.7961    0.6107   38.6101 C.2       0      C_A    0.0000
    322 C           2.2896   -7.4844   -0.6701 C.2       0      C_A    0.0000
    323 C          -0.0857   -8.1686   -0.2140 C.2       0      C_A    0.0000
    324 C          -1.0608   -8.8281    0.7612 C.2       0      C_A    0.0000
    325 C          -0.7734   -8.3735    2.1903 C.2       0      C_A    0.0000
    326 C          -3.5137   -8.9620    1.3959 C.2       0      C_A    0.0000
    327 C          -3.1580   -8.4023    2.7667 C.2       0      C_A    0.0000
    328 C          -4.2366   -8.7490    3.7845 C.2       0      C_A    0.0000
    329 C          -3.7902   -8.2948    5.1678 C.2       0      C_A    0.0000
    330 C          -6.1313   -7.1489    4.3665 C.2       0      C_A    0.0000
    331 C          -6.1545   -7.6900    5.7941 C.2       0      C_A    0.0000
    332 C          -6.5006   -6.5530    6.7497 C.2       0      C_A    0.0000
    333 C          -6.3119   -6.8939    8.2269 C.2       0      C_A    0.0000
    334 C          -8.4429   -5.0126    7.3992 C.2       0      C_A    0.0000
    335 C          -7.8411   -5.1007    8.7943 C.2       0      C_A    0.0000
    336 C          -8.8129   -4.3987    9.7294 C.2       0      C_A    0.0000
    337 C          -8.5402   -4.6734   11.1951 C.2       0      C_A    0.0000
    338 C          -9.7279   -2.0630   10.2496 C.2       0      C_A    0.0000
    339 C          -9.5476   -2.3987   11.7241 C.2       0      C_A    0.0000
    340 C          -9.6706   -1.2562   12.7196 C.2       0      C_A    0.0000
    341 C          -8.8718   -1.3901   14.0026 C.2       0      C_A    0.0000
    342 C          -9.0463    1.1621   13.2212 C.2       0      C_A    0.0000
    343 C          -9.6403    0.9229   14.6020 C.2       0      C_A    0.0000
    344 C          -8.9445    1.8605   15.5863 C.2       0      C_A    0.0000
    345 C          -9.5079    1.6878   16.9943 C.2       0      C_A    0.0000
    346 C          -8.1139    4.1448   16.1098 C.2       0      C_A    0.0000
    347 C          -8.6997    4.0293   17.5162 C.2       0      C_A    0.0000
    348 C          -7.8251    4.7739   18.5129 C.2       0      C_A    0.0000
    349 C          -8.4439    4.7445   19.9072 C.2       0      C_A    0.0000
    350 C          -6.3094    6.4790   19.0541 C.2       0      C_A    0.0000
    351 C          -6.8794    6.7802   20.4291 C.2       0      C_A    0.0000
    352 C          -5.7617    7.1054   21.4128 C.2       0      C_A    0.0000
    353 C          -6.3848    7.3208   22.7831 C.2       0      C_A    0.0000
    354 C          -3.9191    8.7872   21.9184 C.2       0      C_A    0.0000
    355 C          -4.0285    8.1324   23.2935 C.2       0      C_A    0.0000
    356 C          -3.1966    8.9385   24.2894 C.2       0      C_A    0.0000
    357 C          -3.3149    8.4240   25.7254 C.2       0      C_A    0.0000
    358 C          -0.9445    9.8348   24.8135 C.2       0      C_A    0.0000
    359 C          -1.0828    9.3235   26.2523 C.2       0      C_A    0.0000
    360 C          -0.1501   10.0886   27.1798 C.2       0      C_A    0.0000
    361 C          -0.4718   10.0660   28.6678 C.2       0      C_A    0.0000
    362 C           2.1086    9.0785   27.7865 C.2       0      C_A    0.0000
    363 C           1.9848    9.7161   29.1630 C.2       0      C_A    0.0000
    364 C           3.0297    9.2831   30.1839 C.2       0      C_A    0.0000
    365 C           2.5241    8.8292   31.5424 C.2       0      C_A    0.0000
    366 C           4.8829    7.6192   30.7236 C.2       0      C_A    0.0000
    367 C           4.9526    8.1837   32.1343 C.2       0      C_A    0.0000
    368 C           5.4288    7.1025   33.0953 C.2       0      C_A    0.0000
    369 C           5.4973    7.6532   34.5144 C.2       0      C_A    0.0000
    370 C           7.1736    5.4822   33.6880 C.2       0      C_A    0.0000
    371 C           7.4506    6.1403   35.0322 C.2       0      C_A    0.0000
    372 C           8.1512    5.2032   36.0074 C.2       0      C_A    0.0000
    373 C           7.9675    5.5391   37.4786 C.2       0      C_A    0.0000
    374 C           8.7067    2.7935   36.6050 C.2       0      C_A    0.0000
    375 C           8.2755    3.0293   38.0504 C.2       0      C_A    0.0000
    376 C           9.1016    2.0769   38.9191 C.2       0      C_A    0.0000
    377 C           9.1908    2.4358   40.3983 C.2       0      C_A    0.0000
    378 C           3.7479   -7.8228   -0.3906 C.2       0      C_A    0.0000
    379 C           4.0785   -7.9686    1.0879 C.2       0      C_A    0.0000
    380 C           1.3738   -8.3262    0.2106 C.2       0      C_A    0.0000
    381 C           1.5483   -7.8525    1.6475 C.2       0      C_A    0.0000
    382 C           0.6726   -8.6610    2.5910 C.2       0      C_A    0.0000
    383 C           0.8700   -8.2718    4.0504 C.2       0      C_A    0.0000
    384 C          -1.7933   -8.9542    3.1651 C.2       0      C_A    0.0000
    385 C          -1.4402   -8.5869    4.6034 C.2       0      C_A    0.0000
    386 C          -2.5211   -9.0432    5.5703 C.2       0      C_A    0.0000
    387 C          -2.1112   -8.6629    6.9880 C.2       0      C_A    0.0000
    388 C          -4.9135   -8.4926    6.1700 C.2       0      C_A    0.0000
    389 C          -4.4339   -8.1704    7.5761 C.2       0      C_A    0.0000
    390 C          -5.6290   -8.2228    8.5112 C.2       0      C_A    0.0000
    391 C          -5.3242   -8.4444    9.9892 C.2       0      C_A    0.0000
    392 C          -7.4630   -6.5306    9.1475 C.2       0      C_A    0.0000
    393 C          -7.0833   -6.7208   10.6103 C.2       0      C_A    0.0000
    394 C          -7.2822   -5.4847   11.4762 C.2       0      C_A    0.0000
    395 C          -7.3322   -5.9863   12.9138 C.2       0      C_A    0.0000
    396 C          -8.4747   -3.4207   12.0595 C.2       0      C_A    0.0000
    397 C          -8.6840   -3.8943   13.4920 C.2       0      C_A    0.0000
    398 C          -8.4480   -2.7619   14.4665 C.2       0      C_A    0.0000
    399 C          -8.9128   -3.1352   15.8595 C.2       0      C_A    0.0000
    400 C          -9.5250   -0.5285   15.0649 C.2       0      C_A    0.0000
    401 C          -8.8158   -0.6360   16.4053 C.2       0      C_A    0.0000
    402 C          -9.5045    0.2300   17.4428 C.3       0      C_A    0.0000
    403 C          -8.8192    0.0759   18.7872 C.2       0      C_A    0.0000
    404 C          -8.7473    2.5742   17.9736 C.2       0      C_A    0.0000
    405 C          -9.3220    2.4562   19.3841 C.2       0      C_A    0.0000
    406 C          -8.5152    3.2938   20.3752 C.2       0      C_A    0.0000
    407 C          -9.1027    3.1802   21.7746 C.2       0      C_A    0.0000
    408 C          -7.8172    5.6879   20.9339 C.2       0      C_A    0.0000
    409 C          -7.3823    5.0114   22.2247 C.2       0      C_A    0.0000
    410 C          -6.8288    5.9576   23.2870 C.2       0      C_A    0.0000
    411 C          -7.5381    5.9729   24.6296 C.3       0      C_A    0.0000
    412 C          -5.4659    8.0090   23.7842 C.2       0      C_A    0.0000
    413 C          -5.4501    7.3248   25.1500 C.2       0      C_A    0.0000
    414 C          -4.7737    8.2688   26.1406 C.2       0      C_A    0.0000
    415 C          -4.8655    7.8029   27.5937 C.2       0      C_A    0.0000
    416 C          -2.5449    9.3365   26.6810 C.2       0      C_A    0.0000
    417 C          -2.7130    8.9120   28.1415 C.2       0      C_A    0.0000
    418 C          -1.9326    9.8565   29.0492 C.2       0      C_A    0.0000
    419 C          -2.2293    9.7216   30.5398 C.2       0      C_A    0.0000
    420 C           0.5540    9.4546   29.6154 C.2       0      C_A    0.0000
    421 C           0.2591    9.9495   31.0253 C.2       0      C_A    0.0000
    422 C           1.3859    9.7261   32.0238 C.2       0      C_A    0.0000
    423 C           0.9317    9.3337   33.4264 C.2       0      C_A    0.0000
    424 C           3.6599    8.8609   32.5679 C.2       0      C_A    0.0000
    425 C           3.1251    8.4907   33.9428 C.2       0      C_A    0.0000
    426 C           4.0887    7.9612   34.9812 C.2       0      C_A    0.0000
    427 C           4.0904    8.6513   36.3317 C.2       0      C_A    0.0000
    428 C           6.0897    6.6416   35.4983 C.2       0      C_A    0.0000
    429 C           6.1543    7.2248   36.9018 C.2       0      C_A    0.0000
    430 C           6.6150    6.1289   37.8625 C.2       0      C_A    0.0000
    431 C           6.6929    6.7105   39.2711 C.2       0      C_A    0.0000
    432 C           8.5084    4.4855   38.4379 C.2       0      C_A    0.0000
    433 C           8.2881    4.7910   39.9126 C.2       0      C_A    0.0000
    434 C           8.2223    3.5433   40.7877 C.2       0      C_A    0.0000
    435 C           8.3232    3.9442   42.2601 C.2       0      C_A    0.0000
    436 C           8.9302    1.2480   41.3165 C.2       0      C_A    0.0000
    437 C           9.1882    1.6291   42.7745 C.2       0      C_A    0.0000
    438 C           8.9921    0.4577   43.7369 C.2       0      C_A    0.0000
    439 C           9.3809    0.9022   45.1404 C.2       0      C_A    0.0000
    440 C           7.4983   -4.4246    0.0756 C.2       0      C_A    0.0000
    441 C           5.9183   -6.2943    0.5321 C.2       0      C_A    0.0000
    442 C           5.4167   -7.3575    1.5062 C.2       0      C_A    0.0000
    443 C           5.3145   -6.7838    2.9178 C.2       0      C_A    0.0000
    444 C           2.9843   -7.6446    2.0953 C.2       0      C_A    0.0000
    445 C           3.3490   -8.2870    3.4282 C.2       0      C_A    0.0000
    446 C           2.3008   -8.0700    4.5071 C.2       0      C_A    0.0000
    447 C           2.6781   -8.7522    5.8158 C.2       0      C_A    0.0000
    448 C          -0.0495   -9.1178    4.9188 C.2       0      C_A    0.0000
    449 C           0.3044   -9.2040    6.3917 C.2       0      C_A    0.0000
    450 C          -0.8176   -9.3489    7.4042 C.2       0      C_A    0.0000
    451 C          -0.4446   -8.8170    8.7823 C.2       0      C_A    0.0000
    452 C          -3.2297   -9.0035    7.9712 C.2       0      C_A    0.0000
    453 C          -2.8550   -8.6346    9.4037 C.2       0      C_A    0.0000
    454 C          -3.9852   -9.1035   10.3117 C.2       0      C_A    0.0000
    455 C          -3.6518   -9.2413   11.7958 C.2       0      C_A    0.0000
    456 C          -5.6727   -7.2565   10.8752 C.2       0      C_A    0.0000
    457 C          -5.5571   -7.6888   12.3366 C.2       0      C_A    0.0000
    458 C          -5.9864   -6.5853   13.2971 C.2       0      C_A    0.0000
    459 C          -6.0423   -7.1380   14.7182 C.2       0      C_A    0.0000
    460 C          -7.5921   -4.8641   13.9026 C.2       0      C_A    0.0000
    461 C          -7.8489   -5.4689   15.2745 C.2       0      C_A    0.0000
    462 C          -8.4237   -4.5101   16.3088 C.2       0      C_A    0.0000
    463 C          -7.6922   -4.4941   17.6444 C.2       0      C_A    0.0000
    464 C          -8.4879   -2.0558   16.8459 C.2       0      C_A    0.0000
    465 C          -9.0059   -2.3970   18.2318 C.2       0      C_A    0.0000
    466 C          -8.6055   -1.3544   19.2614 C.2       0      C_A    0.0000
    467 C          -9.2736   -1.6775   20.5913 C.2       0      C_A    0.0000
    468 C          -9.4470    0.9964   19.8214 C.2       0      C_A    0.0000
    469 C          -8.8514    0.7580   21.1974 C.2       0      C_A    0.0000
    470 C          -9.4054    1.7484   22.2040 C.2       0      C_A    0.0000
    471 C          -8.8680    1.3280   23.5592 C.2       0      C_A    0.0000
    472 C          -8.4878    4.1320   22.7887 C.2       0      C_A    0.0000
    473 C          -8.0074    3.4966   24.0810 C.2       0      C_A    0.0000
    474 C          -7.6235    4.5414   25.1141 C.2       0      C_A    0.0000
    475 C          -7.9084    4.2677   26.5787 C.2       0      C_A    0.0000
    476 C          -6.8350    6.8920   25.6146 C.2       0      C_A    0.0000
    477 C          -6.7358    6.3372   27.0319 C.2       0      C_A    0.0000
    478 C          -6.3119    7.4730   27.9512 C.2       0      C_A    0.0000
    479 C          -6.5498    7.1859   29.4238 C.2       0      C_A    0.0000
    480 C          -4.2089    8.8666   28.4686 C.2       0      C_A    0.0000
    481 C          -4.5703    8.8012   29.9496 C.2       0      C_A    0.0000
    482 C          -3.3346    8.7208   30.8306 C.2       0      C_A    0.0000
    483 C          -3.6021    8.5499   32.3198 C.2       0      C_A    0.0000
    484 C          -1.0567    9.3054   31.4218 C.2       0      C_A    0.0000
    485 C          -1.4029    9.3043   32.9058 C.2       0      C_A    0.0000
    486 C          -0.3923    9.9700   33.8195 C.2       0      C_A    0.0000
    487 C          -0.7651    9.8018   35.2895 C.2       0      C_A    0.0000
    488 C           2.1038    9.5316   34.3716 C.2       0      C_A    0.0000
    489 C           1.7440    9.5992   35.8419 C.2       0      C_A    0.0000
    490 C           2.6405    8.7889   36.7649 C.2       0      C_A    0.0000
    491 C           2.4932    9.3416   38.1745 C.2       0      C_A    0.0000
    492 C           4.7597    7.6914   37.3155 C.2       0      C_A    0.0000
    493 C           4.7563    8.2795   38.7181 C.2       0      C_A    0.0000
    494 C           5.3298    7.2560   39.6900 C.2       0      C_A    0.0000
    495 C           5.3611    7.8551   41.0908 C.2       0      C_A    0.0000
    496 C           7.0248    5.5821   40.2343 C.2       0      C_A    0.0000
    497 C           7.1080    6.0834   41.6722 C.2       0      C_A    0.0000
    498 C           7.1425    4.8543   42.5652 C.2       0      C_A    0.0000
    499 C           6.8658    5.1607   44.0238 C.2       0      C_A    0.0000
    500 C           8.2194    2.7361   43.1801 C.2       0      C_A    0.0000
    501 C           8.4100    3.1813   44.6288 C.2       0      C_A    0.0000
    502 C           8.3709    1.9683   45.5481 C.2       0      C_A    0.0000
    503 C           8.3184    2.3381   47.0184 C.2       0      C_A    0.0000
    504 C           8.9449    0.0709   47.4897 C.2       0      C_A    0.0000
    505 C           8.9246   -2.4242   -0.3694 C.2       0      C_A    0.0000
    506 C           8.7355   -3.6497    0.5211 C.2       0      C_A    0.0000
    507 C           8.6159   -3.2050    1.9782 C.2       0      C_A    0.0000
    508 C           7.1923   -5.5963    1.0056 C.2       0      C_A    0.0000
    509 C           7.0518   -5.0842    2.4352 C.2       0      C_A    0.0000
    510 C           6.6576   -6.2222    3.3717 C.2       0      C_A    0.0000
    511 C           6.5154   -5.7047    4.7977 C.2       0      C_A    0.0000
    512 C           4.7221   -7.8002    3.8930 C.2       0      C_A    0.0000
    513 C           4.6940   -7.2781    5.3313 C.2       0      C_A    0.0000
    514 C           4.0861   -8.3370    6.2404 C.2       0      C_A    0.0000
    515 C           4.4155   -8.2707    7.7256 C.2       0      C_A    0.0000
    516 C           1.5824   -8.5292    6.8529 C.2       0      C_A    0.0000
    517 C           2.0477   -9.0588    8.2038 C.2       0      C_A    0.0000
    518 C           0.9383   -9.2697    9.2269 C.2       0      C_A    0.0000
    519 C           1.1903   -8.6818   10.6076 C.2       0      C_A    0.0000
    520 C          -1.5187   -9.2690    9.7722 C.2       0      C_A    0.0000
    521 C          -1.1960   -8.9348   11.2250 C.2       0      C_A    0.0000
    522 C          -2.2136   -9.6510   12.1042 C.2       0      C_A    0.0000
    523 C          -1.8656   -9.7503   13.5870 C.2       0      C_A    0.0000
    524 C          -4.1298   -8.1011   12.6858 C.2       0      C_A    0.0000
    525 C          -4.0696   -8.5830   14.1357 C.2       0      C_A    0.0000
    526 C          -4.6388   -7.5661   15.1226 C.2       0      C_A    0.0000
    527 C          -4.6352   -8.1526   16.5323 C.2       0      C_A    0.0000
    528 C          -6.5441   -6.1094   15.7298 C.2       0      C_A    0.0000
    529 C          -6.6680   -6.7774   17.0931 C.2       0      C_A    0.0000
    530 C          -7.3807   -5.9083   18.1197 C.2       0      C_A    0.0000
    531 C          -6.7415   -5.8810   19.5058 C.2       0      C_A    0.0000
    532 C          -8.5868   -3.7963   18.6638 C.2       0      C_A    0.0000
    533 C          -8.0320   -3.8438   20.0845 C.2       0      C_A    0.0000
    534 C          -9.0212   -3.1283   20.9922 C.2       0      C_A    0.0000
    535 C          -8.9680   -3.4789   22.4696 C.2       0      C_A    0.0000
    536 C          -8.8495   -0.6898   21.6637 C.2       0      C_A    0.0000
    537 C          -9.5665   -1.0394   22.9621 C.2       0      C_A    0.0000
    538 C          -9.5822    0.0648   24.0130 C.2       0      C_A    0.0000
    539 C          -9.0201   -0.3388   25.3686 C.2       0      C_A    0.0000
    540 C          -9.0152    2.4650   24.5530 C.2       0      C_A    0.0000
    541 C          -8.6622    2.0485   25.9712 C.2       0      C_A    0.0000
    542 C          -9.0108    3.2513   26.8377 C.2       0      C_A    0.0000
    543 C          -9.1983    2.9657   28.3217 C.2       0      C_A    0.0000
    544 C          -7.9609    5.5253   27.4305 C.2       0      C_A    0.0000
    545 C          -8.0317    5.1650   28.9102 C.2       0      C_A    0.0000
    546 C          -6.8830    5.7297   29.7391 C.2       0      C_A    0.0000
    547 C          -7.2108    5.5557   31.2239 C.2       0      C_A    0.0000
    548 C          -5.3830    7.5717   30.3182 C.2       0      C_A    0.0000
    549 C          -5.8897    7.5793   31.7538 C.2       0      C_A    0.0000
    550 C          -5.0464    8.3765   32.7321 C.2       0      C_A    0.0000
    551 C          -4.9832    7.7993   34.1400 C.2       0      C_A    0.0000
    552 C          -2.8721    9.5618   33.1962 C.2       0      C_A    0.0000
    553 C          -3.2207    9.5311   34.6875 C.2       0      C_A    0.0000
    554 C          -2.0781    9.0687   35.5826 C.2       0      C_A    0.0000
    555 C          -2.4628    9.2637   37.0519 C.2       0      C_A    0.0000
    556 C           0.3170    9.1835   36.1640 C.2       0      C_A    0.0000
    557 C          -0.0077    9.5468   37.6101 C.2       0      C_A    0.0000
    558 C           1.0572    9.0721   38.5907 C.2       0      C_A    0.0000
    559 C           0.7200    9.5567   39.9917 C.2       0      C_A    0.0000
    560 C           3.3161    8.5235   39.1560 C.2       0      C_A    0.0000
    561 C           3.2648    9.1566   40.5378 C.2       0      C_A    0.0000
    562 C           3.9466    8.2244   41.5311 C.2       0      C_A    0.0000
    563 C           3.9497    8.8053   42.9398 C.2       0      C_A    0.0000
    564 C           5.8480    6.8200   42.0905 C.2       0      C_A    0.0000
    565 C           5.9857    7.4586   43.4671 C.2       0      C_A    0.0000
    566 C           6.7634    6.6099   44.4564 C.3       0      C_A    0.0000
    567 C           6.1640    6.6162   45.8551 C.2       0      C_A    0.0000
    568 C           7.2865    4.1215   45.0421 C.2       0      C_A    0.0000
    569 C           7.2286    4.5001   46.5154 C.2       0      C_A    0.0000
    570 C           8.3012    3.8216   47.3540 C.2       0      C_A    0.0000
    571 C           7.8640    3.9810   48.8049 C.2       0      C_A    0.0000
    572 C           9.2005    1.5036   47.9303 C.2       0      C_A    0.0000
    573 C           8.6658    1.7168   49.3417 C.2       0      C_A    0.0000
    574 C          10.1681   -1.6313    0.0165 C.2       0      C_A    0.0000
    575 C          10.1698   -1.2727    1.4955 C.2       0      C_A    0.0000
    576 C           9.8868   -2.4720    2.3976 C.2       0      C_A    0.0000
    577 C           9.9508   -2.1092    3.8778 C.2       0      C_A    0.0000
    578 C           8.3448   -4.4044    2.8834 C.2       0      C_A    0.0000
    579 C           8.1813   -3.9043    4.3117 C.2       0      C_A    0.0000
    580 C           7.7853   -5.0206    5.2791 C.2       0      C_A    0.0000
    581 C           7.4734   -4.3778    6.6226 C.2       0      C_A    0.0000
    582 C           6.1088   -6.8615    5.7011 C.2       0      C_A    0.0000
    583 C           6.3833   -6.6515    7.1787 C.2       0      C_A    0.0000
    584 C           5.2829   -7.0918    8.1263 C.2       0      C_A    0.0000
    585 C           5.8887   -7.2767    9.5126 C.2       0      C_A    0.0000
    586 C           3.1876   -8.1474    8.6146 C.2       0      C_A    0.0000
    587 C           3.4796   -7.9525   10.0901 C.2       0      C_A    0.0000
    588 C           2.6462   -8.8152   11.0262 C.2       0      C_A    0.0000
    589 C           2.7937   -8.2731   12.4451 C.2       0      C_A    0.0000
    590 C           0.2266   -9.3540   11.5806 C.2       0      C_A    0.0000
    591 C           0.4821   -8.9418   13.0233 C.2       0      C_A    0.0000
    592 C          -0.3833   -9.7804   13.9554 C.2       0      C_A    0.0000
    593 C          -0.1427   -9.2963   15.3868 C.2       0      C_A    0.0000
    594 C          -2.6301   -8.8535   14.5479 C.2       0      C_A    0.0000
    595 C          -2.5819   -9.4371   15.9623 C.2       0      C_A    0.0000
    596 C          -3.1990   -8.4543   16.9514 C.2       0      C_A    0.0000
    597 C          -3.1457   -9.0306   18.3616 C.2       0      C_A    0.0000
    598 C          -5.2884   -7.2256   17.5546 C.2       0      C_A    0.0000
    599 C          -5.3384   -7.9468   18.8977 C.2       0      C_A    0.0000
    600 C          -6.2563   -7.2644   19.9039 C.2       0      C_A    0.0000
    601 C          -5.9624   -7.4742   21.3789 C.2       0      C_A    0.0000
    602 C          -7.8059   -5.3075   20.4375 C.2       0      C_A    0.0000
    603 C          -7.6648   -5.6236   21.9155 C.2       0      C_A    0.0000
    604 C          -7.8339   -4.4241   22.8414 C.2       0      C_A    0.0000
    605 C          -8.0208   -4.9318   24.2705 C.2       0      C_A    0.0000
    606 C          -8.8845   -2.3096   23.4438 C.2       0      C_A    0.0000
    607 C          -9.3032   -2.8140   24.8173 C.2       0      C_A    0.0000
    608 C          -9.5336   -1.6985   25.8263 C.2       0      C_A    0.0000
    609 C          -8.8842   -1.9680   27.1754 C.2       0      C_A    0.0000
    610 C          -9.3671    0.7643   26.3712 C.2       0      C_A    0.0000
    611 C          -8.9507    0.4408   27.8033 C.2       0      C_A    0.0000
    612 C          -9.5480    1.5243   28.6910 C.2       0      C_A    0.0000
    613 C          -9.5977    1.2066   30.1779 C.2       0      C_A    0.0000
    614 C          -8.1615    3.6650   29.1936 C.2       0      C_A    0.0000
    615 C          -8.4946    3.4697   30.6681 C.2       0      C_A    0.0000
    616 C          -7.4012    4.0811   31.5400 C.2       0      C_A    0.0000
    617 C          -7.5944    3.8127   33.0309 C.2       0      C_A    0.0000
    618 C          -6.1252    6.1267   32.1296 C.2       0      C_A    0.0000
    619 C          -6.3920    5.8790   33.6073 C.2       0      C_A    0.0000
    620 C          -6.2887    7.1103   34.4967 C.2       0      C_A    0.0000
    621 C          -6.2995    6.6674   35.9585 C.2       0      C_A    0.0000
    622 C          -4.5868    8.9466   35.0532 C.2       0      C_A    0.0000
    623 C          -4.8900    8.7467   36.5339 C.2       0      C_A    0.0000
    624 C          -3.6918    8.4348   37.4191 C.2       0      C_A    0.0000
    625 C          -4.0829    8.6870   38.8772 C.2       0      C_A    0.0000
    626 C          -1.3225    8.8769   37.9921 C.2       0      C_A    0.0000
    627 C          -1.6830    9.1548   39.4509 C.2       0      C_A    0.0000
    628 C          -0.5325    8.7832   40.3828 C.2       0      C_A    0.0000
    629 C          -0.9117    8.7896   41.8565 C.2       0      C_A    0.0000
    630 C           1.8560    9.5056   41.0012 C.2       0      C_A    0.0000
    631 C           1.4887    8.9388   42.3621 C.2       0      C_A    0.0000
    632 C           2.5708    9.2835   43.3805 C.2       0      C_A    0.0000
    633 C           2.1091    8.7441   44.7227 C.2       0      C_A    0.0000
    634 C           4.5958    7.8518   43.9401 C.2       0      C_A    0.0000
    635 C           4.5869    8.5297   45.3017 C.2       0      C_A    0.0000
    636 C           5.5801    7.9467   46.3005 C.2       0      C_A    0.0000
    637 C           5.1998    8.0403   47.7768 C.2       0      C_A    0.0000
    638 C           7.1891    5.9949   46.7934 C.2       0      C_A    0.0000
    639 C           7.0331    6.3605   48.2614 C.2       0      C_A    0.0000
    640 C           7.7327    5.4321   49.2481 C.2       0      C_A    0.0000
    641 C           8.7258    3.1737   49.7758 C.2       0      C_A    0.0000
    642 C           9.4678   -0.7148    4.2592 C.2       0      C_A    0.0000
    643 C          10.0108   -0.3082    5.6236 C.2       0      C_A    0.0000
    644 C           9.4133   -3.1693    4.8333 C.2       0      C_A    0.0000
    645 C           8.9952   -2.5411    6.1594 C.2       0      C_A    0.0000
    646 C           8.6578   -3.6119    7.1922 C.2       0      C_A    0.0000
    647 C           8.2510   -2.9454    8.4978 C.2       0      C_A    0.0000
    648 C           6.7121   -5.2315    7.6181 C.2       0      C_A    0.0000
    649 C           7.3345   -5.2576    9.0090 C.2       0      C_A    0.0000
    650 C           6.4300   -5.9497   10.0267 C.2       0      C_A    0.0000
    651 C           7.1708   -6.1013   11.3538 C.2       0      C_A    0.0000
    652 C           4.9444   -7.9339   10.5100 C.2       0      C_A    0.0000
    653 C           5.0012   -7.2865   11.8906 C.2       0      C_A    0.0000
    654 C           4.2558   -8.1819   12.8738 C.2       0      C_A    0.0000
    655 C           4.2970   -7.6262   14.2921 C.2       0      C_A    0.0000
    656 C           1.9502   -9.1008   13.4076 C.2       0      C_A    0.0000
    657 C           2.1510   -8.6504   14.8541 C.2       0      C_A    0.0000
    658 C           1.3106   -9.5037   15.7975 C.2       0      C_A    0.0000
    659 C           1.5048   -9.0140   17.2263 C.2       0      C_A    0.0000
    660 C          -1.1720   -9.8828   16.3371 C.2       0      C_A    0.0000
    661 C          -0.8203   -9.9043   17.8157 C.2       0      C_A    0.0000
    662 C          -1.6855   -9.1109   18.7836 C.2       0      C_A    0.0000
    663 C          -1.5748   -9.7245   20.1776 C.2       0      C_A    0.0000
    664 C          -3.8999   -8.1504   19.3591 C.2       0      C_A    0.0000
    665 C          -3.8388   -8.7608   20.7541 C.2       0      C_A    0.0000
    666 C          -4.5176   -7.8093   21.7297 C.2       0      C_A    0.0000
    667 C          -4.4892   -8.3756   23.1461 C.2       0      C_A    0.0000
    668 C          -6.3520   -6.3033   22.2747 C.2       0      C_A    0.0000
    669 C          -6.4055   -6.8052   23.7153 C.2       0      C_A    0.0000
    670 C          -6.7778   -5.7006   24.6996 C.2       0      C_A    0.0000
    671 C          -6.9649   -6.3078   26.0870 C.2       0      C_A    0.0000
    672 C          -8.2511   -3.8131   25.2854 C.2       0      C_A    0.0000
    673 C          -8.5768   -4.4292   26.6438 C.2       0      C_A    0.0000
    674 C          -9.0144   -3.3963   27.6825 C.2       0      C_A    0.0000
    675 C          -8.1744   -3.5019   28.9496 C.2       0      C_A    0.0000
    676 C          -9.4831   -0.9483   28.1307 C.2       0      C_A    0.0000
    677 C          -9.4706   -1.3597   29.5871 C.2       0      C_A    0.0000
    678 C          -9.2125   -0.2155   30.5416 C.2       0      C_A    0.0000
    679 C          -9.6158   -0.6045   31.9533 C.2       0      C_A    0.0000
    680 C          -8.5529    1.9822   30.9609 C.2       0      C_A    0.0000
    681 C          -8.5786    1.6788   32.4481 C.2       0      C_A    0.0000
    682 C          -8.8002    2.9261   33.2838 C.2       0      C_A    0.0000
    683 C          -9.0526    2.6123   34.7506 C.2       0      C_A    0.0000
    684 C          -7.6533    5.0717   33.8790 C.2       0      C_A    0.0000
    685 C          -7.6573    4.6708   35.3496 C.2       0      C_A    0.0000
    686 C          -7.6124    5.9244   36.2164 C.2       0      C_A    0.0000
    687 C          -7.9939    5.7338   37.6784 C.2       0      C_A    0.0000
    688 C          -6.1145    7.8872   36.8471 C.2       0      C_A    0.0000
    689 C          -6.3829    7.6286   38.3222 C.2       0      C_A    0.0000
    690 C          -5.1885    7.7241   39.2566 C.2       0      C_A    0.0000
    691 C          -5.7185    7.9223   40.6688 C.2       0      C_A    0.0000
    692 C          -2.9189    8.3412   39.7994 C.2       0      C_A    0.0000
    693 C          -3.2407    8.3162   41.2903 C.2       0      C_A    0.0000
    694 C          -2.3416    9.2422   42.1063 C.2       0      C_A    0.0000
    695 C          -2.7375    9.3358   43.5805 C.2       0      C_A    0.0000
    696 C           0.1064    9.4355   42.7779 C.2       0      C_A    0.0000
    697 C          -0.2613    9.0243   44.2022 C.2       0      C_A    0.0000
    698 C           0.8470    9.4728   45.1492 C.2       0      C_A    0.0000
    699 C           0.5412    9.1061   46.5873 C.2       0      C_A    0.0000
    700 C           3.1502    8.4762   45.7923 C.2       0      C_A    0.0000
    701 C           3.0295    9.2017   47.1166 C.2       0      C_A    0.0000
    702 C           3.7437    8.3252   48.1340 C.2       0      C_A    0.0000
    703 C           3.6983    8.9321   49.5258 C.2       0      C_A    0.0000
    704 C           5.6400    6.8502   48.6191 C.2       0      C_A    0.0000
    705 C           5.3666    7.0569   50.1029 C.2       0      C_A    0.0000
    706 C           9.9079   -1.4287    6.6577 C.2       0      C_A    0.0000
    707 C           9.3651   -0.8950    7.9837 C.2       0      C_A    0.0000
    708 C           9.3444   -2.0190    9.0040 C.2       0      C_A    0.0000
    709 C           8.9915   -1.5261   10.3972 C.2       0      C_A    0.0000
    710 C           7.6310   -3.8600    9.5365 C.2       0      C_A    0.0000
    711 C           8.3974   -3.9838   10.8449 C.2       0      C_A    0.0000
    712 C           7.5394   -4.7149   11.8731 C.2       0      C_A    0.0000
    713 C           8.2556   -4.7389   13.2144 C.2       0      C_A    0.0000
    714 C           6.4099   -6.9521   12.3675 C.2       0      C_A    0.0000
    715 C           6.3119   -6.2937   13.7407 C.2       0      C_A    0.0000
    716 C           5.6993   -7.2637   14.7542 C.2       0      C_A    0.0000
    717 C           5.5821   -6.5794   16.1107 C.2       0      C_A    0.0000
    718 C           3.6332   -8.6518   15.1987 C.2       0      C_A    0.0000
    719 C           3.9454   -8.4825   16.6729 C.2       0      C_A    0.0000
    720 C           2.9670   -9.0935   17.6628 C.2       0      C_A    0.0000
    721 C           3.0981   -8.4821   19.0546 C.2       0      C_A    0.0000
    722 C           0.6564   -9.8414   18.1879 C.2       0      C_A    0.0000
    723 C           0.8259   -9.3044   19.6083 C.2       0      C_A    0.0000
    724 C          -0.1303   -9.9385   20.6076 C.3       0      C_A    0.0000
    725 C           0.1390   -9.3661   21.9918 C.2       0      C_A    0.0000
    726 C          -2.3825   -8.9247   21.1919 C.2       0      C_A    0.0000
    727 C          -2.3075   -9.5623   22.5772 C.2       0      C_A    0.0000
    728 C          -3.0641   -8.6955   23.5787 C.2       0      C_A    0.0000
    729 C          -3.0518   -9.3091   24.9757 C.2       0      C_A    0.0000
    730 C          -5.0434   -7.3488   24.1296 C.2       0      C_A    0.0000
    731 C          -5.1148   -7.9514   25.5281 C.2       0      C_A    0.0000
    732 C          -5.6434   -6.9278   26.5289 C.2       0      C_A    0.0000
    733 C          -5.7768   -7.5870   27.8959 C.2       0      C_A    0.0000
    734 C          -7.3795   -5.2539   27.1118 C.2       0      C_A    0.0000
    735 C          -7.6036   -5.9091   28.4735 C.2       0      C_A    0.0000
    736 C          -8.1157   -4.9121   29.5158 C.2       0      C_A    0.0000
    737 C          -7.3126   -4.9625   30.8133 C.2       0      C_A    0.0000
    738 C          -8.4486   -2.4204   29.9808 C.2       0      C_A    0.0000
    739 C          -8.7841   -2.9455   31.3731 C.2       0      C_A    0.0000
    740 C          -8.7957   -1.8100   32.3946 C.2       0      C_A    0.0000
    741 C          -9.2602   -2.3166   33.7552 C.2       0      C_A    0.0000
    742 C          -9.4752    0.5555   32.9326 C.2       0      C_A    0.0000
    743 C          -8.8185    0.1168   34.2330 C.2       0      C_A    0.0000
    744 C          -8.6281    1.2378   35.2516 C.2       0      C_A    0.0000
    745 C          -9.3280    0.9191   36.5655 C.2       0      C_A    0.0000
    746 C          -8.8152    3.7566   35.7266 C.2       0      C_A    0.0000
    747 C          -8.4860    3.2605   37.1283 C.2       0      C_A    0.0000
    748 C          -8.6387    4.4170   38.1081 C.2       0      C_A    0.0000
    749 C          -8.2664    3.9811   39.5253 C.2       0      C_A    0.0000
    750 C          -6.9872    6.2723   38.6757 C.2       0      C_A    0.0000
    751 C          -7.5431    6.3516   40.0986 C.2       0      C_A    0.0000
    752 C          -6.4080    6.6269   41.0836 C.2       0      C_A    0.0000
    753 C          -6.9359    6.7379   42.5041 C.2       0      C_A    0.0000
    754 C          -4.7039    8.4855   41.6494 C.2       0      C_A    0.0000
    755 C          -4.9949    8.2717   43.1270 C.2       0      C_A    0.0000
    756 C          -3.7448    8.2770   44.0081 C.2       0      C_A    0.0000
    757 C          -4.1834    8.4566   45.4594 C.2       0      C_A    0.0000
    758 C          -1.6133    9.6191   44.5758 C.2       0      C_A    0.0000
    759 C          -1.9809    9.4687   46.0485 C.2       0      C_A    0.0000
    760 C          -0.8274    9.6137   47.0263 C.2       0      C_A    0.0000
    761 C          -1.0840    9.0068   48.3966 C.2       0      C_A    0.0000
    762 C           1.6291    9.6235   47.5273 C.3       0      C_A    0.0000
    763 C           1.2837    9.1814   48.9438 C.2       0      C_A    0.0000
    764 C           2.3558    9.4881   49.9775 C.2       0      C_A    0.0000
    765 C           9.9831   -0.4450   10.8125 C.2       0      C_A    0.0000
    766 C           9.9430   -0.0813   12.2933 C.2       0      C_A    0.0000
    767 C           9.0678   -2.7142   11.3506 C.2       0      C_A    0.0000
    768 C           8.6365   -2.2386   12.7246 C.2       0      C_A    0.0000
    769 C           8.2822   -3.3135   13.7469 C.2       0      C_A    0.0000
    770 C           9.0467   -3.1995   15.0585 C.2       0      C_A    0.0000
    771 C           7.6335   -5.7029   14.2239 C.2       0      C_A    0.0000
    772 C           7.4166   -5.0470   15.5867 C.2       0      C_A    0.0000
    773 C           6.9398   -6.0897   16.5935 C.2       0      C_A    0.0000
    774 C           6.7875   -5.5176   17.9957 C.2       0      C_A    0.0000
    775 C           4.6993   -7.2536   17.1540 C.2       0      C_A    0.0000
    776 C           5.3763   -7.5615   18.4830 C.2       0      C_A    0.0000
    777 C           4.5425   -8.3100   19.5144 C.2       0      C_A    0.0000
    778 C           4.5298   -7.6755   20.9031 C.2       0      C_A    0.0000
    779 C           2.2887   -9.3123   20.0464 C.2       0      C_A    0.0000
    780 C           2.4209   -8.7672   21.4666 C.2       0      C_A    0.0000
    781 C           1.5823   -9.6341   22.3923 C.2       0      C_A    0.0000
    782 C           1.9013   -9.5735   23.8775 C.2       0      C_A    0.0000
    783 C          -0.8665   -9.8113   23.0363 C.2       0      C_A    0.0000
    784 C          -0.5951   -9.1350   24.3748 C.2       0      C_A    0.0000
    785 C          -1.6191   -9.6320   25.3775 C.2       0      C_A    0.0000
    786 C          -1.2745   -9.6660   26.8508 C.2       0      C_A    0.0000
    787 C          -3.7122   -8.3579   25.9656 C.2       0      C_A    0.0000
    788 C          -3.7237   -8.9889   27.3518 C.2       0      C_A    0.0000
    789 C          -4.3989   -8.0579   28.3525 C.2       0      C_A    0.0000
    790 C          -4.4663   -8.7055   29.7289 C.2       0      C_A    0.0000
    791 C          -6.3137   -6.5928   28.9211 C.2       0      C_A    0.0000
    792 C          -6.4470   -7.2895   30.2718 C.2       0      C_A    0.0000
    793 C          -7.1782   -6.4036   31.2685 C.2       0      C_A    0.0000
    794 C          -6.9860   -6.7120   32.7396 C.2       0      C_A    0.0000
    795 C          -7.7695   -3.9672   31.8685 C.2       0      C_A    0.0000
    796 C          -8.2252   -4.5575   33.1996 C.2       0      C_A    0.0000
    797 C          -8.3422   -3.4398   34.2363 C.2       0      C_A    0.0000
    798 C          -8.8429   -3.9851   35.5652 C.2       0      C_A    0.0000
    799 C          -9.4143   -1.1762   34.7657 C.2       0      C_A    0.0000
    800 C          -8.7653   -1.5086   36.0971 C.2       0      C_A    0.0000
    801 C          -8.8765   -0.4112   37.1566 C.2       0      C_A    0.0000
    802 C          -9.6676   -0.7705   38.4104 C.3       0      C_A    0.0000
    803 C          -9.3252    2.0650   37.5708 C.2       0      C_A    0.0000
    804 C          -8.8903    1.6283   38.9674 C.2       0      C_A    0.0000
    805 C          -9.1160    2.7835   39.9454 C.2       0      C_A    0.0000
    806 C          -8.7753    2.3986   41.3812 C.2       0      C_A    0.0000
    807 C          -8.4218    5.1656   40.4664 C.2       0      C_A    0.0000
    808 C          -8.6273    4.8983   41.9478 C.2       0      C_A    0.0000
    809 C          -7.5683    5.4121   42.9115 C.2       0      C_A    0.0000
    810 C          -8.1368    5.5365   44.3254 C.2       0      C_A    0.0000
    811 C          -5.7662    6.9978   43.4485 C.2       0      C_A    0.0000
    812 C          -6.2762    7.1005   44.8814 C.2       0      C_A    0.0000
    813 C          -5.1447    7.3515   45.8693 C.2       0      C_A    0.0000
    814 C          -5.7818    7.6526   47.2189 C.2       0      C_A    0.0000
    815 C          -2.9779    8.3710   46.3863 C.2       0      C_A    0.0000
    816 C          -3.3546    8.2426   47.8654 C.2       0      C_A    0.0000
    817 C          -2.5354    9.1106   48.8166 C.2       0      C_A    0.0000
    818 C          -0.0978    9.7017   49.3167 C.2       0      C_A    0.0000
    819 C           9.6568   -1.2370   13.2530 C.2       0      C_A    0.0000
    820 C           9.0902   -0.7218   14.5660 C.2       0      C_A    0.0000
    821 C           8.9210   -1.7938   15.6334 C.2       0      C_A    0.0000
    822 C           9.7505   -1.6065   16.8955 C.3       0      C_A    0.0000
    823 C           8.6267   -4.2581   16.0744 C.2       0      C_A    0.0000
    824 C           8.3023   -3.6401   17.4322 C.2       0      C_A    0.0000
    825 C           8.0373   -4.7600   18.4337 C.2       0      C_A    0.0000
    826 C           7.8226   -4.2268   19.8474 C.2       0      C_A    0.0000
    827 C           6.4930   -6.6529   18.9682 C.2       0      C_A    0.0000
    828 C           6.3001   -6.1004   20.3750 C.2       0      C_A    0.0000
    829 C           5.9064   -7.2045   21.3485 C.2       0      C_A    0.0000
    830 C           5.8168   -6.6401   22.7654 C.2       0      C_A    0.0000
    831 C           3.8751   -8.6333   21.8933 C.2       0      C_A    0.0000
    832 C           3.9053   -8.1108   23.3276 C.2       0      C_A    0.0000
    833 C           3.3342   -9.1945   24.2331 C.2       0      C_A    0.0000
    834 C           3.6396   -9.0727   25.7207 C.2       0      C_A    0.0000
    835 C           0.8547   -8.9890   24.8111 C.2       0      C_A    0.0000
    836 C           1.1700   -9.4462   26.2303 C.2       0      C_A    0.0000
    837 C           0.0705   -9.0520   27.2078 C.2       0      C_A    0.0000
    838 C           0.4215   -9.4859   28.6306 C.2       0      C_A    0.0000
    839 C          -2.2760   -9.0289   27.7999 C.2       0      C_A    0.0000
    840 C          -2.0555   -9.6076   29.1868 C.2       0      C_A    0.0000
    841 C          -3.1471   -9.3022   30.2031 C.2       0      C_A    0.0000
    842 C          -2.6606   -8.7827   31.5469 C.2       0      C_A    0.0000
    843 C          -5.0561   -7.7174   30.7335 C.2       0      C_A    0.0000
    844 C          -5.1106   -8.3166   32.1307 C.2       0      C_A    0.0000
    845 C          -5.6386   -7.2942   33.1225 C.2       0      C_A    0.0000
    846 C          -5.7134   -7.9502   34.4944 C.2       0      C_A    0.0000
    847 C          -7.1840   -5.5475   33.6959 C.2       0      C_A    0.0000
    848 C          -7.5492   -6.1708   35.0332 C.2       0      C_A    0.0000
    849 C          -8.1701   -5.2526   36.0727 C.2       0      C_A    0.0000
    850 C          -7.3993   -5.0970   37.3730 C.2       0      C_A    0.0000
    851 C          -9.1675   -2.8931   36.5787 C.2       0      C_A    0.0000
    852 C          -8.5132   -3.0093   37.9401 C.2       0      C_A    0.0000
    853 C          -9.3177   -2.1645   38.9177 C.2       0      C_A    0.0000
    854 C          -8.7881   -2.2973   40.3357 C.2       0      C_A    0.0000
    855 C          -9.5856    0.3542   39.4393 C.2       0      C_A    0.0000
    856 C          -9.1004   -0.0047   40.8397 C.2       0      C_A    0.0000
    857 C          -9.4790    1.1077   41.8074 C.2       0      C_A    0.0000
    858 C          -9.0502    0.7513   43.2268 C.2       0      C_A    0.0000
    859 C          -9.1545    3.5230   42.3400 C.2       0      C_A    0.0000
    860 C          -8.7385    3.1502   43.7628 C.2       0      C_A    0.0000
    861 C          -8.9713    4.3203   44.7073 C.2       0      C_A    0.0000
    862 C          -9.1190    4.0293   46.1933 C.2       0      C_A    0.0000
    863 C          -6.9982    5.8219   45.2975 C.2       0      C_A    0.0000
    864 C          -7.5296    5.9478   46.7217 C.2       0      C_A    0.0000
    865 C          -6.4276    6.3606   47.7005 C.2       0      C_A    0.0000
    866 C          -6.9789    6.5052   49.1135 C.2       0      C_A    0.0000
    867 C          -4.8375    8.3268   48.2024 C.2       0      C_A    0.0000
    868 C          -5.2096    8.1880   49.6765 C.2       0      C_A    0.0000
    869 C           9.6965   -0.1663   17.3873 C.2       0      C_A    0.0000
    870 C           9.3793   -2.6754   17.9186 C.2       0      C_A    0.0000
    871 C           9.0174   -2.1762   19.3123 C.2       0      C_A    0.0000
    872 C           8.9790   -3.3351   20.2911 C.2       0      C_A    0.0000
    873 C           8.7277   -2.8588   21.7182 C.2       0      C_A    0.0000
    874 C           7.5733   -5.3835   20.8106 C.2       0      C_A    0.0000
    875 C           7.4551   -4.8771   22.2451 C.2       0      C_A    0.0000
    876 C           7.1518   -6.0321   23.1895 C.2       0      C_A    0.0000
    877 C           7.0472   -5.4837   24.6069 C.2       0      C_A    0.0000
    878 C           5.3212   -7.7122   23.7315 C.2       0      C_A    0.0000
    879 C           5.2882   -7.1921   25.1652 C.2       0      C_A    0.0000
    880 C           4.9113   -8.3288   26.1107 C.2       0      C_A    0.0000
    881 C           4.9068   -7.8187   27.5528 C.2       0      C_A    0.0000
    882 C           2.4835   -8.8008   26.6706 C.2       0      C_A    0.0000
    883 C           2.8551   -9.2468   28.0854 C.2       0      C_A    0.0000
    884 C           1.7418   -8.8470   29.0474 C.2       0      C_A    0.0000
    885 C           2.1066   -9.2228   30.4771 C.2       0      C_A    0.0000
    886 C          -0.6788   -9.1276   29.6322 C.2       0      C_A    0.0000
    887 C          -0.2980   -9.6403   31.0142 C.2       0      C_A    0.0000
    888 C          -1.4350   -9.5596   32.0217 C.2       0      C_A    0.0000
    889 C          -0.9935   -9.1220   33.4140 C.2       0      C_A    0.0000
    890 C          -3.7784   -8.9060   32.5818 C.2       0      C_A    0.0000
    891 C          -3.2620   -8.4611   33.9457 C.2       0      C_A    0.0000
    892 C          -4.2874   -8.0900   34.9979 C.2       0      C_A    0.0000
    893 C          -4.1637   -8.8072   36.3298 C.2       0      C_A    0.0000
    894 C          -6.5962   -7.2546   35.5269 C.2       0      C_A    0.0000
    895 C          -5.8700   -6.9607   36.8335 C.2       0      C_A    0.0000
    896 C          -6.8743   -6.4430   37.8591 C.2       0      C_A    0.0000
    897 C          -6.2388   -6.2572   39.2323 C.2       0      C_A    0.0000
    898 C          -8.3405   -4.4517   38.3841 C.2       0      C_A    0.0000
    899 C          -7.7634   -4.4303   39.7926 C.2       0      C_A    0.0000
    900 C          -8.7810   -3.7711   40.7158 C.2       0      C_A    0.0000
    901 C          -8.5594   -4.0190   42.1942 C.2       0      C_A    0.0000
    902 C          -9.5917   -1.3867   41.2449 C.2       0      C_A    0.0000
    903 C          -9.4413   -1.7199   42.7185 C.2       0      C_A    0.0000
    904 C          -9.6339   -0.5752   43.6989 C.2       0      C_A    0.0000
    905 C          -9.0303   -0.8731   45.0652 C.2       0      C_A    0.0000
    906 C          -9.4459    1.8719   44.1903 C.2       0      C_A    0.0000
    907 C          -9.0274    1.5498   45.6194 C.2       0      C_A    0.0000
    908 C          -9.5335    2.6160   46.5858 C.2       0      C_A    0.0000
    909 C          -9.0324    2.2782   47.9890 C.2       0      C_A    0.0000
    910 C          -8.0799    4.5969   47.1505 C.2       0      C_A    0.0000
    911 C          -8.6783    4.7061   48.5515 C.2       0      C_A    0.0000
    912 C          -7.6397    5.2013   49.5525 C.2       0      C_A    0.0000
    913 C          -5.8400    6.8555   50.0703 C.2       0      C_A    0.0000
    914 C           9.8671   -0.9807   19.7035 C.2       0      C_A    0.0000
    915 C           9.8806   -0.6332   21.1840 C.2       0      C_A    0.0000
    916 C           9.7629   -1.8259   22.1285 C.2       0      C_A    0.0000
    917 C           9.7105   -1.4661   23.6047 C.2       0      C_A    0.0000
    918 C           8.7293   -4.1162   22.5864 C.2       0      C_A    0.0000
    919 C           9.0297   -3.9086   24.0619 C.2       0      C_A    0.0000
    920 C           8.3732   -4.8704   25.0444 C.2       0      C_A    0.0000
    921 C           8.1906   -4.3233   26.4583 C.2       0      C_A    0.0000
    922 C           6.6451   -6.6101   25.5592 C.2       0      C_A    0.0000
    923 C           6.6765   -6.1897   27.0319 C.2       0      C_A    0.0000
    924 C           6.3375   -7.4030   27.8932 C.2       0      C_A    0.0000
    925 C           6.6712   -7.2820   29.3754 C.2       0      C_A    0.0000
    926 C           4.2620   -8.8178   28.5029 C.2       0      C_A    0.0000
    927 C           4.5288   -8.5964   29.9886 C.2       0      C_A    0.0000
    928 C           3.2866   -8.3402   30.8297 C.2       0      C_A    0.0000
    929 C           3.5538   -8.2714   32.3252 C.2       0      C_A    0.0000
    930 C           0.9613   -8.8958   31.4307 C.2       0      C_A    0.0000
    931 C           1.3486   -9.0092   32.8993 C.2       0      C_A    0.0000
    932 C           0.3496   -9.7337   33.7799 C.2       0      C_A    0.0000
    933 C           0.7220   -9.6400   35.2539 C.2       0      C_A    0.0000
    934 C          -2.1410   -9.3999   34.3662 C.2       0      C_A    0.0000
    935 C          -1.7593   -9.4350   35.8307 C.2       0      C_A    0.0000
    936 C          -2.7102   -8.7213   36.7782 C.2       0      C_A    0.0000
    937 C          -2.4686   -9.3534   38.1410 C.2       0      C_A    0.0000
    938 C          -5.1262   -8.1954   37.3481 C.2       0      C_A    0.0000
    939 C          -4.4431   -7.8623   38.6694 C.2       0      C_A    0.0000
    940 C          -5.5194   -7.5177   39.6940 C.2       0      C_A    0.0000
    941 C          -4.9108   -7.2548   41.0665 C.2       0      C_A    0.0000
    942 C          -7.3052   -5.8113   40.2298 C.2       0      C_A    0.0000
    943 C          -6.7126   -5.6629   41.6245 C.2       0      C_A    0.0000
    944 C          -7.8083   -5.2747   42.6079 C.2       0      C_A    0.0000
    945 C          -7.2084   -5.1422   44.0016 C.2       0      C_A    0.0000
    946 C          -8.4694   -2.8198   43.1250 C.2       0      C_A    0.0000
    947 C          -8.8081   -3.3055   44.5282 C.2       0      C_A    0.0000
    948 C          -9.3014   -2.2937   45.5449 C.2       0      C_A    0.0000
    949 C          -8.6433   -2.4594   46.9079 C.2       0      C_A    0.0000
    950 C          -9.5301    0.1747   46.0539 C.2       0      C_A    0.0000
    951 C          -9.0260   -0.1124   47.4636 C.2       0      C_A    0.0000
    952 C          -9.5660    0.9245   48.4418 C.2       0      C_A    0.0000
    953 C          -9.0774    0.6189   49.8543 C.2       0      C_A    0.0000
    954 C          -9.3130    3.3878   48.9935 C.2       0      C_A    0.0000
    955 C           9.0698   -0.1302   23.9541 C.2       0      C_A    0.0000
    956 C           8.9968   -2.4634   24.5101 C.2       0      C_A    0.0000
    957 C           9.5616   -2.2344   25.9077 C.2       0      C_A    0.0000
    958 C           9.3067   -3.3814   26.8765 C.2       0      C_A    0.0000
    959 C           9.3438   -3.0246   28.3554 C.2       0      C_A    0.0000
    960 C           8.0234   -5.5517   27.3496 C.2       0      C_A    0.0000
    961 C           8.3265   -5.3440   28.8245 C.2       0      C_A    0.0000
    962 C           7.3068   -5.9595   29.7717 C.2       0      C_A    0.0000
    963 C           7.8919   -5.9988   31.1806 C.2       0      C_A    0.0000
    964 C           5.4366   -7.4060   30.2517 C.2       0      C_A    0.0000
    965 C           5.6406   -7.1006   31.7302 C.2       0      C_A    0.0000
    966 C           5.0220   -8.1340   32.6675 C.2       0      C_A    0.0000
    967 C           5.0533   -7.6935   34.1290 C.2       0      C_A    0.0000
    968 C           2.8149   -9.3274   33.1350 C.2       0      C_A    0.0000
    969 C           3.1773   -9.3799   34.6184 C.2       0      C_A    0.0000
    970 C           2.0626   -8.9802   35.5786 C.2       0      C_A    0.0000
    971 C           2.4524   -9.3668   37.0065 C.2       0      C_A    0.0000
    972 C          -0.3321   -9.0316   36.1696 C.2       0      C_A    0.0000
    973 C          -0.0128   -9.5043   37.5873 C.2       0      C_A    0.0000
    974 C          -1.0461   -9.0581   38.6174 C.2       0      C_A    0.0000
    975 C          -0.7825   -9.7918   39.9251 C.2       0      C_A    0.0000
    976 C          -3.5474   -8.9967   39.1540 C.2       0      C_A    0.0000
    977 C          -2.9445   -8.6223   40.4997 C.2       0      C_A    0.0000
    978 C          -4.0707   -8.4432   41.5133 C.2       0      C_A    0.0000
    979 C          -3.5381   -8.2003   42.9228 C.2       0      C_A    0.0000
    980 C          -6.0287   -6.9558   42.0575 C.2       0      C_A    0.0000
    981 C          -5.4710   -6.8029   43.4686 C.2       0      C_A    0.0000
    982 C          -6.6063   -6.4758   44.4308 C.2       0      C_A    0.0000
    983 C          -6.0754   -6.4174   45.8592 C.2       0      C_A    0.0000
    984 C          -8.2519   -4.6434   44.9898 C.2       0      C_A    0.0000
    985 C          -7.6253   -4.5952   46.3766 C.2       0      C_A    0.0000
    986 C          -8.5576   -3.9100   47.3648 C.2       0      C_A    0.0000
    987 C          -7.9300   -3.9392   48.7540 C.2       0      C_A    0.0000
    988 C          -9.3369   -1.5383   47.9027 C.2       0      C_A    0.0000
    989 C          -8.7785   -1.7337   49.3061 C.2       0      C_A    0.0000
    990 C           9.0532   -0.8711   26.3624 C.2       0      C_A    0.0000
    991 C           9.5236   -0.5223   27.7678 C.2       0      C_A    0.0000
    992 C           8.9808   -1.5872   28.7092 C.2       0      C_A    0.0000
    993 C           9.3456   -1.2695   30.1576 C.2       0      C_A    0.0000
    994 C           8.4199   -3.8765   29.2172 C.2       0      C_A    0.0000
    995 C           8.8635   -3.7032   30.6659 C.2       0      C_A    0.0000
    996 C           8.1030   -4.5732   31.6598 C.2       0      C_A    0.0000
    997 C           8.7243   -4.4490   33.0425 C.3       0      C_A    0.0000
    998 C           7.0639   -6.8053   32.1732 C.2       0      C_A    0.0000
    999 C           6.9172   -6.1584   33.5484 C.2       0      C_A    0.0000
   1000 C           6.4449   -7.2239   34.5359 C.2       0      C_A    0.0000
   1001 C           6.4027   -6.7376   35.9831 C.2       0      C_A    0.0000
   1002 C           4.5587   -8.8486   34.9898 C.2       0      C_A    0.0000
   1003 C           4.8761   -8.7609   36.4759 C.2       0      C_A    0.0000
   1004 C           3.7107   -8.6331   37.4452 C.2       0      C_A    0.0000
   1005 C           4.2160   -9.1068   38.8066 C.2       0      C_A    0.0000
   1006 C           1.3682   -9.0402   38.0345 C.2       0      C_A    0.0000
   1007 C           1.7416   -9.7024   39.3548 C.2       0      C_A    0.0000
   1008 C           0.6578   -9.8418   40.4124 C.2       0      C_A    0.0000
   1009 C           0.9318   -9.2095   41.7700 C.2       0      C_A    0.0000
   1010 C          -1.8850   -9.6184   40.9591 C.2       0      C_A    0.0000
   1011 C          -1.4243   -9.1462   42.3276 C.2       0      C_A    0.0000
   1012 C          -2.5938   -9.3371   43.2771 C.2       0      C_A    0.0000
   1013 C          -2.2420   -9.4548   44.7456 C.2       0      C_A    0.0000
   1014 C          -4.7038   -8.0537   43.8868 C.2       0      C_A    0.0000
   1015 C          -4.2104   -7.9167   45.3242 C.2       0      C_A    0.0000
   1016 C          -5.4500   -7.7629   46.2025 C.2       0      C_A    0.0000
   1017 C          -5.2313   -8.0527   47.6786 C.2       0      C_A    0.0000
   1018 C          -7.1807   -5.9897   46.8138 C.2       0      C_A    0.0000
   1019 C          -6.5856   -5.9364   48.2134 C.2       0      C_A    0.0000
   1020 C          -7.6037   -5.3590   49.1947 C.2       0      C_A    0.0000
   1021 C          -8.8272   -3.1939   49.7341 C.2       0      C_A    0.0000
   1022 C           8.6758   -2.2547   31.1006 C.2       0      C_A    0.0000
   1023 C           9.1869   -2.0412   32.5188 C.2       0      C_A    0.0000
   1024 C           8.4846   -3.0064   33.4616 C.2       0      C_A    0.0000
   1025 C           8.6192   -2.7079   34.9421 C.2       0      C_A    0.0000
   1026 C           8.1860   -5.4735   34.0219 C.2       0      C_A    0.0000
   1027 C           7.9607   -4.9212   35.4223 C.2       0      C_A    0.0000
   1028 C           7.7264   -6.0780   36.3733 C.2       0      C_A    0.0000
   1029 C           7.8323   -5.6883   37.8392 C.2       0      C_A    0.0000
   1030 C           6.0954   -7.9347   36.8699 C.2       0      C_A    0.0000
   1031 C           6.3155   -7.6808   38.3540 C.2       0      C_A    0.0000
   1032 C           5.1568   -8.0166   39.2813 C.2       0      C_A    0.0000
   1033 C           5.7192   -8.1702   40.6854 C.2       0      C_A    0.0000
   1034 C           3.1463   -9.4098   39.8495 C.2       0      C_A    0.0000
   1035 C           3.3045   -8.7551   41.2196 C.2       0      C_A    0.0000
   1036 C           2.3740   -9.4293   42.2246 C.2       0      C_A    0.0000
   1037 C           2.6223   -8.9078   43.6432 C.2       0      C_A    0.0000
   1038 C          -0.0967   -9.7090   42.7870 C.2       0      C_A    0.0000
   1039 C           0.2352   -9.0919   44.1357 C.2       0      C_A    0.0000
   1040 C          -0.8621   -8.9992   45.1839 C.2       0      C_A    0.0000
   1041 C          -0.6014   -9.6638   46.5281 C.2       0      C_A    0.0000
   1042 C          -3.3665   -9.1187   45.7150 C.2       0      C_A    0.0000
   1043 C          -2.9941   -9.1577   47.1878 C.2       0      C_A    0.0000
   1044 C          -3.7865   -8.2368   48.1085 C.2       0      C_A    0.0000
   1045 C          -3.6831   -8.8670   49.4946 C.2       0      C_A    0.0000
   1046 C          -6.1061   -7.3068   48.6774 C.2       0      C_A    0.0000
   1047 C          -5.4291   -7.1132   50.0305 C.2       0      C_A    0.0000
   1048 C           9.2198   -0.5853   32.9555 C.2       0      C_A    0.0000
   1049 C           8.6614   -0.3274   34.3498 C.2       0      C_A    0.0000
   1050 C           9.2106   -1.3644   35.3191 C.2       0      C_A    0.0000
   1051 C           8.7721   -1.0866   36.7540 C.2       0      C_A    0.0000
   1052 C           9.0245   -3.8994   35.7915 C.2       0      C_A    0.0000
   1053 C           9.1142   -3.5810   37.2780 C.2       0      C_A    0.0000
   1054 C           8.0153   -4.1982   38.1330 C.2       0      C_A    0.0000
   1055 C           8.4269   -4.0535   39.5969 C.2       0      C_A    0.0000
   1056 C           6.7073   -6.2469   38.6983 C.2       0      C_A    0.0000
   1057 C           7.1405   -6.1661   40.1597 C.2       0      C_A    0.0000
   1058 C           6.1039   -6.7584   41.1155 C.2       0      C_A    0.0000
   1059 C           6.6523   -6.7696   42.5346 C.2       0      C_A    0.0000
   1060 C           4.7641   -8.8677   41.6437 C.2       0      C_A    0.0000
   1061 C           5.0928   -8.6705   43.1179 C.2       0      C_A    0.0000
   1062 C           4.0476   -9.2248   44.0802 C.2       0      C_A    0.0000
   1063 C           4.3474   -8.9457   45.5519 C.2       0      C_A    0.0000
   1064 C           1.6099   -9.5412   44.5950 C.2       0      C_A    0.0000
   1065 C           1.8107   -9.0915   46.0305 C.2       0      C_A    0.0000
   1066 C           0.8418   -9.7992   46.9723 C.3       0      C_A    0.0000
   1067 C           1.0509   -9.2820   48.3925 C.2       0      C_A    0.0000
   1068 C          -1.5214   -9.0347   47.5634 C.2       0      C_A    0.0000
   1069 C          -1.3727   -9.6437   48.9545 C.2       0      C_A    0.0000
   1070 C          -2.2337   -8.8932   49.9719 C.2       0      C_A    0.0000
   1071 C           9.4632   -2.1337   37.6188 C.2       0      C_A    0.0000
   1072 C           9.5412   -1.8171   39.1023 C.2       0      C_A    0.0000
   1073 C           8.5930   -2.5927   40.0049 C.2       0      C_A    0.0000
   1074 C           9.1867   -2.5275   41.4107 C.2       0      C_A    0.0000
   1075 C           7.4354   -4.7210   40.5480 C.2       0      C_A    0.0000
   1076 C           8.0223   -4.7158   41.9550 C.2       0      C_A    0.0000
   1077 C           7.0547   -5.3568   42.9462 C.2       0      C_A    0.0000
   1078 C           7.7129   -5.4100   44.3183 C.2       0      C_A    0.0000
   1079 C           5.5812   -7.2769   43.4955 C.2       0      C_A    0.0000
   1080 C           6.1473   -7.3399   44.9116 C.2       0      C_A    0.0000
   1081 C           4.9973   -7.6088   45.8704 C.2       0      C_A    0.0000
   1082 C           5.3542   -7.3737   47.3402 C.2       0      C_A    0.0000
   1083 C           3.2362   -9.3134   46.5168 C.2       0      C_A    0.0000
   1084 C           3.3269   -8.6132   47.8660 C.2       0      C_A    0.0000
   1085 C           2.5061   -9.4752   48.8018 C.2       0      C_A    0.0000
   1086 C           0.0698   -9.8682   49.3949 C.2       0      C_A    0.0000
   1087 C           9.6431   -0.3370   39.4530 C.2       0      C_A    0.0000
   1088 C           9.6882   -0.0188   40.9402 C.2       0      C_A    0.0000
   1089 C           9.1302   -1.0849   41.8721 C.2       0      C_A    0.0000
   1090 C           9.6617   -0.8298   43.2742 C.2       0      C_A    0.0000
   1091 C           8.3255   -3.2919   42.4085 C.2       0      C_A    0.0000
   1092 C           9.0005   -3.3241   43.7746 C.2       0      C_A    0.0000
   1093 C           8.0717   -4.0003   44.7798 C.2       0      C_A    0.0000
   1094 C           8.6672   -4.0453   46.1826 C.2       0      C_A    0.0000
   1095 C           6.7709   -6.0256   45.3430 C.2       0      C_A    0.0000
   1096 C           7.5165   -6.1838   46.6628 C.2       0      C_A    0.0000
   1097 C           6.8240   -7.1234   47.6427 C.2       0      C_A    0.0000
   1098 C           7.1872   -6.9447   49.1172 C.2       0      C_A    0.0000
   1099 C           4.7555   -8.3860   48.3104 C.2       0      C_A    0.0000
   1100 C           4.8284   -7.7666   49.7027 C.2       0      C_A    0.0000
   1101 C           9.4959   -1.9712   44.2701 C.2       0      C_A    0.0000
   1102 C           8.9266   -1.5705   45.6226 C.2       0      C_A    0.0000
   1103 C           9.1399   -2.6784   46.6571 C.2       0      C_A    0.0000
   1104 C           8.5497   -2.2345   47.9859 C.2       0      C_A    0.0000
   1105 C           7.7349   -4.7627   47.1587 C.2       0      C_A    0.0000
   1106 C           8.3047   -4.7305   48.5650 C.2       0      C_A    0.0000
   1107 C           7.4226   -5.5014   49.5416 C.2       0      C_A    0.0000
   1108 C           6.2936   -7.6912   50.1087 C.2       0      C_A    0.0000
   1109 C           9.5219   -0.2558   46.1211 C.2       0      C_A    0.0000
   1110 C           9.2875   -1.0098   48.5039 C.2       0      C_A    0.0000
   1111 C           8.7354   -0.6059   49.8575 C.2       0      C_A    0.0000
   1112 C           8.2520   -3.2870   49.0328 C.2       0      C_A    0.0000
   1113 C           9.2792    0.7318   50.3251 C.2       0      C_A    0.0000
   1114 C           8.7508    0.9574   51.7330 C.2       0      C_A    0.0000
   1115 C           7.0772    5.3927   50.6210 C.2       0      C_A    0.0000
   1116 C           8.1435    3.2772   51.1843 C.2       0      C_A    0.0000
   1117 C           8.9156    2.4095   52.1716 C.2       0      C_A    0.0000
   1118 C           8.3680    2.5833   53.5877 C.2       0      C_A    0.0000
   1119 C           9.3970   -0.0198   52.7082 C.2       0      C_A    0.0000
   1120 C           8.7680    0.1986   54.0781 C.2       0      C_A    0.0000
   1121 C           6.5288    6.7456   51.0385 C.2       0      C_A    0.0000
   1122 C           6.0207    6.6396   52.4745 C.2       0      C_A    0.0000
   1123 C           8.0196    4.7316   51.6221 C.2       0      C_A    0.0000
   1124 C           7.4758    4.8019   53.0464 C.2       0      C_A    0.0000
   1125 C           8.4014    4.0524   53.9981 C.2       0      C_A    0.0000
   1126 C           8.0925    4.2835   55.4714 C.2       0      C_A    0.0000
   1127 C           9.0819    1.6213   54.5308 C.2       0      C_A    0.0000
   1128 C           8.8624    1.9186   56.0044 C.2       0      C_A    0.0000
   1129 C           8.5779    0.6985   56.8717 C.2       0      C_A    0.0000
   1130 C           8.5890    1.0521   58.3539 C.2       0      C_A    0.0000
   1131 C           1.8798    8.9549   51.3226 C.2       0      C_A    0.0000
   1132 C           4.6555    8.3316   50.5411 C.2       0      C_A    0.0000
   1133 C           4.0632    8.0235   51.9091 C.2       0      C_A    0.0000
   1134 C           5.2005    7.8448   52.9117 C.2       0      C_A    0.0000
   1135 C           4.6702    7.5603   54.3128 C.2       0      C_A    0.0000
   1136 C           7.1683    6.2521   53.3992 C.2       0      C_A    0.0000
   1137 C           6.9252    6.4815   54.8823 C.2       0      C_A    0.0000
   1138 C           6.9260    5.2249   55.7383 C.2       0      C_A    0.0000
   1139 C           7.0143    5.6897   57.1821 C.2       0      C_A    0.0000
   1140 C           7.8385    3.0102   56.2698 C.2       0      C_A    0.0000
   1141 C           7.7025    3.2682   57.7695 C.2       0      C_A    0.0000
   1142 C           8.7807    2.5440   58.5739 C.2       0      C_A    0.0000
   1143 C           8.9047    2.9233   60.0458 C.2       0      C_A    0.0000
   1144 C           9.4934    0.1611   59.1896 C.2       0      C_A    0.0000
   1145 C           9.4396    0.5101   60.6696 C.2       0      C_A    0.0000
   1146 C          -2.7171    8.5324   50.2147 C.2       0      C_A    0.0000
   1147 C          -0.4716    9.7530   50.7803 C.2       0      C_A    0.0000
   1148 C           0.6634    9.7441   51.7931 C.2       0      C_A    0.0000
   1149 C           0.1871    9.2307   53.1519 C.2       0      C_A    0.0000
   1150 C           3.0030    9.0198   52.3510 C.2       0      C_A    0.0000
   1151 C           2.4899    8.5944   53.7247 C.2       0      C_A    0.0000
   1152 C           3.6508    8.6255   54.7119 C.2       0      C_A    0.0000
   1153 C           3.1488    8.3386   56.1185 C.2       0      C_A    0.0000
   1154 C           5.8633    7.5105   55.2583 C.2       0      C_A    0.0000
   1155 C           5.5221    7.5981   56.7397 C.2       0      C_A    0.0000
   1156 C           5.7073    6.3420   57.5896 C.2       0      C_A    0.0000
   1157 C           5.6002    6.5968   59.0929 C.2       0      C_A    0.0000
   1158 C           7.6792    4.7333   58.1532 C.2       0      C_A    0.0000
   1159 C           7.2275    4.8370   59.5999 C.2       0      C_A    0.0000
   1160 C           8.3607    4.2890   60.4525 C.2       0      C_A    0.0000
   1161 C           8.2637    4.5990   61.9364 C.2       0      C_A    0.0000
   1162 C           8.6551    1.7768   61.0170 C.2       0      C_A    0.0000
   1163 C           9.0227    2.1989   62.4382 C.2       0      C_A    0.0000
   1164 C           8.7554    1.0669   63.4305 C.2       0      C_A    0.0000
   1165 C           9.1954    1.4698   64.8371 C.2       0      C_A    0.0000
   1166 C          -4.1625    8.7015   50.6580 C.2       0      C_A    0.0000
   1167 C          -4.4489    8.4548   52.1323 C.2       0      C_A    0.0000
   1168 C          -1.6823    8.9703   51.2424 C.2       0      C_A    0.0000
   1169 C          -2.2460    9.5479   52.5374 C.2       0      C_A    0.0000
   1170 C          -1.1333    9.8908   53.5276 C.2       0      C_A    0.0000
   1171 C          -1.5143    9.8725   55.0041 C.2       0      C_A    0.0000
   1172 C           1.3066    9.4566   54.1586 C.2       0      C_A    0.0000
   1173 C           0.8449    9.1123   55.5714 C.2       0      C_A    0.0000
   1174 C           2.0335    9.3124   56.5076 C.2       0      C_A    0.0000
   1175 C           1.5969    9.0600   57.9430 C.2       0      C_A    0.0000
   1176 C           4.3161    8.4593   57.0873 C.2       0      C_A    0.0000
   1177 C           3.8119    8.1166   58.4772 C.2       0      C_A    0.0000
   1178 C           5.0117    7.9648   59.3941 C.2       0      C_A    0.0000
   1179 C           4.7334    8.1864   60.8678 C.2       0      C_A    0.0000
   1180 C           6.8660    6.2889   59.8825 C.2       0      C_A    0.0000
   1181 C           6.7648    6.6431   61.3619 C.2       0      C_A    0.0000
   1182 C           7.0710    5.4773   62.2956 C.2       0      C_A    0.0000
   1183 C           7.2037    5.9872   63.7278 C.2       0      C_A    0.0000
   1184 C           8.1616    3.3829   62.8508 C.2       0      C_A    0.0000
   1185 C           8.4692    3.8305   64.2771 C.2       0      C_A    0.0000
   1186 C           8.3761    2.6767   65.2703 C.2       0      C_A    0.0000
   1187 C           8.7902    3.1545   66.6584 C.2       0      C_A    0.0000
   1188 C           8.9719    0.3431   65.8479 C.2       0      C_A    0.0000
   1189 C           9.4272    0.7746   67.2380 C.2       0      C_A    0.0000
   1190 C           9.6765    0.1352   69.6232 C.2       0      C_A    0.0000
   1191 C          -8.2279    5.3566   50.9534 C.2       0      C_A    0.0000
   1192 C          -6.3615    6.9249   51.5064 C.2       0      C_A    0.0000
   1193 C          -5.2025    7.1750   52.4628 C.2       0      C_A    0.0000
   1194 C          -5.7053    7.3056   53.8992 C.2       0      C_A    0.0000
   1195 C          -3.2184    8.4934   53.0319 C.2       0      C_A    0.0000
   1196 C          -3.6578    8.6869   54.4743 C.2       0      C_A    0.0000
   1197 C          -2.4539    8.7436   55.4111 C.2       0      C_A    0.0000
   1198 C          -2.9699    8.9959   56.8269 C.2       0      C_A    0.0000
   1199 C          -0.3245   10.0169   55.9483 C.2       0      C_A    0.0000
   1200 C          -0.7134   10.0142   57.4235 C.2       0      C_A    0.0000
   1201 C           0.4545    9.9620   58.4033 C.2       0      C_A    0.0000
   1202 C           0.0157    9.4138   59.7586 C.2       0      C_A    0.0000
   1203 C           2.7711    9.1261   58.9228 C.2       0      C_A    0.0000
   1204 C           2.2506    8.6675   60.2716 C.2       0      C_A    0.0000
   1205 C           3.2695    8.1880   61.2818 C.2       0      C_A    0.0000
   1206 C           3.1326    8.8077   62.6638 C.2       0      C_A    0.0000
   1207 C           5.3887    7.1557   61.7751 C.2       0      C_A    0.0000
   1208 C           5.3814    7.6992   63.2005 C.2       0      C_A    0.0000
   1209 C           5.9016    6.6450   64.1654 C.2       0      C_A    0.0000
   1210 C           6.0110    7.2379   65.5645 C.2       0      C_A    0.0000
   1211 C           7.4110    4.8368   64.7053 C.2       0      C_A    0.0000
   1212 C           7.6841    5.3866   66.0994 C.2       0      C_A    0.0000
   1213 C           7.8355    4.2532   67.1056 C.2       0      C_A    0.0000
   1214 C           8.2137    4.8189   68.4694 C.2       0      C_A    0.0000
   1215 C           8.6578    2.0206   67.6701 C.2       0      C_A    0.0000
   1216 C           9.0938    2.5040   69.0510 C.2       0      C_A    0.0000
   1217 C           8.9492    1.3934   70.0900 C.2       0      C_A    0.0000
   1218 C           9.4474    1.9135   71.4371 C.2       0      C_A    0.0000
   1219 C          -8.8576    2.9815   50.3938 C.2       0      C_A    0.0000
   1220 C          -9.0781    4.1495   51.3384 C.2       0      C_A    0.0000
   1221 C          -9.2286    3.8333   52.8159 C.2       0      C_A    0.0000
   1222 C          -7.0764    5.6351   51.9125 C.2       0      C_A    0.0000
   1223 C          -7.6019    5.7339   53.3399 C.2       0      C_A    0.0000
   1224 C          -6.4732    6.0580   54.3151 C.2       0      C_A    0.0000
   1225 C          -7.0318    6.2373   55.7244 C.2       0      C_A    0.0000
   1226 C          -4.5460    7.5113   54.8732 C.2       0      C_A    0.0000
   1227 C          -5.0795    7.7219   56.2858 C.2       0      C_A    0.0000
   1228 C          -3.9301    7.8953   57.2729 C.2       0      C_A    0.0000
   1229 C          -4.5119    8.1882   58.6547 C.2       0      C_A    0.0000
   1230 C          -1.8355    9.0717   57.8406 C.2       0      C_A    0.0000
   1231 C          -2.4294    9.4954   59.1873 C.2       0      C_A    0.0000
   1232 C          -1.3684    9.8349   60.2312 C.2       0      C_A    0.0000
   1233 C          -1.6704    9.1975   61.5890 C.2       0      C_A    0.0000
   1234 C           1.1301    9.5515   60.7916 C.2       0      C_A    0.0000
   1235 C           0.6462    9.0052   62.1214 C.2       0      C_A    0.0000
   1236 C           1.7009    8.7435   63.1736 C.2       0      C_A    0.0000
   1237 C           1.5801    9.4882   64.4952 C.2       0      C_A    0.0000
   1238 C           3.9534    7.9921   63.6536 C.2       0      C_A    0.0000
   1239 C           3.9079    8.6085   65.0478 C.2       0      C_A    0.0000
   1240 C           4.6266    7.6811   66.0229 C.2       0      C_A    0.0000
   1241 C           4.6576    8.2750   67.4256 C.2       0      C_A    0.0000
   1242 C           6.4539    6.1632   66.5491 C.2       0      C_A    0.0000
   1243 C           6.6425    6.7724   67.9304 C.2       0      C_A    0.0000
   1244 C           7.0863    5.7235   68.9427 C.2       0      C_A    0.0000
   1245 C           7.3705    6.4002   70.2761 C.2       0      C_A    0.0000
   1246 C           8.2574    3.6995   69.4999 C.2       0      C_A    0.0000
   1247 C           8.7522    4.2366   70.8372 C.2       0      C_A    0.0000
   1248 C           8.6472    3.1344   71.8851 C.2       0      C_A    0.0000
   1249 C           9.1125    3.6158   73.2534 C.2       0      C_A    0.0000
   1250 C           9.5847    0.8367   72.5055 C.2       0      C_A    0.0000
   1251 C           8.8676    1.1311   73.8200 C.2       0      C_A    0.0000
   1252 C           8.7094    0.4509   76.2395 C.2       0      C_A    0.0000
   1253 C          -9.4786   -0.7898   50.2747 C.2       0      C_A    0.0000
   1254 C          -9.0284   -1.0542   51.7076 C.2       0      C_A    0.0000
   1255 C          -9.5499    1.6948   50.8243 C.2       0      C_A    0.0000
   1256 C          -9.1488    1.3444   52.2530 C.2       0      C_A    0.0000
   1257 C          -9.6584    2.4190   53.2025 C.2       0      C_A    0.0000
   1258 C          -9.1542    2.0844   54.6022 C.2       0      C_A    0.0000
   1259 C          -8.1782    4.3897   53.7636 C.2       0      C_A    0.0000
   1260 C          -8.7839    4.5015   55.1609 C.2       0      C_A    0.0000
   1261 C          -7.7424    4.9669   56.1725 C.2       0      C_A    0.0000
   1262 C          -8.3525    5.1611   57.5591 C.2       0      C_A    0.0000
   1263 C          -5.9094    6.5185   56.7190 C.2       0      C_A    0.0000
   1264 C          -6.4833    6.7358   58.1174 C.2       0      C_A    0.0000
   1265 C          -5.3730    7.0184   59.1250 C.2       0      C_A    0.0000
   1266 C          -5.9776    7.2764   60.5058 C.2       0      C_A    0.0000
   1267 C          -3.4199    8.4474   59.6859 C.2       0      C_A    0.0000
   1268 C          -4.0888    8.8265   61.0068 C.2       0      C_A    0.0000
   1269 C          -3.1106    9.4285   62.0092 C.2       0      C_A    0.0000
   1270 C          -3.4122    9.2147   63.4834 C.2       0      C_A    0.0000
   1271 C          -0.6300    9.6765   62.5918 C.2       0      C_A    0.0000
   1272 C          -0.8983    9.1967   64.0076 C.2       0      C_A    0.0000
   1273 C           0.1564    9.7393   64.9707 C.3       0      C_A    0.0000
   1274 C          -0.0824    9.1476   66.3528 C.2       0      C_A    0.0000
   1275 C           2.4585    8.7684   65.5152 C.2       0      C_A    0.0000
   1276 C           2.3962    9.3567   66.9220 C.2       0      C_A    0.0000
   1277 C           3.2063    8.4474   67.8386 C.2       0      C_A    0.0000
   1278 C           2.9768    8.5240   69.3302 C.2       0      C_A    0.0000
   1279 C           5.2933    7.2990   68.4089 C.2       0      C_A    0.0000
   1280 C           5.4322    7.9246   69.7897 C.2       0      C_A    0.0000
   1281 C           6.0386    6.9382   70.7846 C.2       0      C_A    0.0000
   1282 C           6.1192    7.5957   72.1525 C.2       0      C_A    0.0000
   1283 C           8.0845    5.5272   71.2966 C.2       0      C_A    0.0000
   1284 C           7.4745    5.4823   72.6901 C.2       0      C_A    0.0000
   1285 C           8.5155    4.9546   73.6765 C.2       0      C_A    0.0000
   1286 C           7.9806    4.9602   75.1102 C.2       0      C_A    0.0000
   1287 C           8.7756    2.5685   74.2972 C.2       0      C_A    0.0000
   1288 C           9.3210    2.8943   75.6755 C.3       0      C_A    0.0000
   1289 C           8.8106    1.8956   76.6951 C.2       0      C_A    0.0000
   1290 C           9.3674    2.1167   78.0960 C.2       0      C_A    0.0000
   1291 C          -7.0181   -5.3003   50.6016 C.2       0      C_A    0.0000
   1292 C          -8.3091   -3.2902   51.1652 C.2       0      C_A    0.0000
   1293 C          -9.2575   -2.5170   52.0748 C.2       0      C_A    0.0000
   1294 C          -9.1309   -2.8176   53.5638 C.2       0      C_A    0.0000
   1295 C          -9.6839   -0.0385   52.6293 C.2       0      C_A    0.0000
   1296 C          -9.4907   -0.4014   54.0915 C.2       0      C_A    0.0000
   1297 C          -9.6317    0.7248   55.0968 C.2       0      C_A    0.0000
   1298 C          -8.9643    0.4290   56.4302 C.2       0      C_A    0.0000
   1299 C          -9.4388    3.1996   55.5984 C.3       0      C_A    0.0000
   1300 C          -8.9425    2.8062   56.9793 C.2       0      C_A    0.0000
   1301 C          -9.1361    3.9265   57.9943 C.2       0      C_A    0.0000
   1302 C          -8.7547    3.4545   59.3934 C.2       0      C_A    0.0000
   1303 C          -7.2612    5.5034   58.5675 C.2       0      C_A    0.0000
   1304 C          -7.8494    5.7210   59.9584 C.2       0      C_A    0.0000
   1305 C          -6.7564    6.0481   60.9719 C.2       0      C_A    0.0000
   1306 C          -7.4175    6.2916   62.3183 C.2       0      C_A    0.0000
   1307 C          -4.8966    7.6354   61.5210 C.2       0      C_A    0.0000
   1308 C          -5.4977    7.9761   62.8778 C.2       0      C_A    0.0000
   1309 C          -4.3662    8.1002   63.8922 C.2       0      C_A    0.0000
   1310 C          -4.9286    8.3931   65.2764 C.2       0      C_A    0.0000
   1311 C          -2.3070    9.5413   64.4767 C.2       0      C_A    0.0000
   1312 C          -2.5074    8.8553   65.8214 C.2       0      C_A    0.0000
   1313 C          -1.5093    9.4261   66.8280 C.2       0      C_A    0.0000
   1314 C          -1.7291    8.8463   68.2197 C.2       0      C_A    0.0000
   1315 C           0.9585    9.5933   67.3796 C.2       0      C_A    0.0000
   1316 C           0.6519    8.9970   68.7491 C.2       0      C_A    0.0000
   1317 C           1.7485    9.3045   69.7622 C.2       0      C_A    0.0000
   1318 C           1.3599    8.7858   71.1430 C.2       0      C_A    0.0000
   1319 C           4.1580    8.5972   70.2887 C.2       0      C_A    0.0000
   1320 C           3.6589    8.0688   71.6296 C.2       0      C_A    0.0000
   1321 C           4.6998    7.7109   72.6762 C.2       0      C_A    0.0000
   1322 C           4.5901    8.4776   73.9840 C.2       0      C_A    0.0000
   1323 C           7.0066    6.8611   73.1480 C.2       0      C_A    0.0000
   1324 C           6.4325    6.7824   74.5634 C.2       0      C_A    0.0000
   1325 C           7.5920    6.3884   75.4764 C.2       0      C_A    0.0000
   1326 C           7.4243    6.7070   76.9538 C.2       0      C_A    0.0000
   1327 C           8.9436    4.3134   76.0991 C.2       0      C_A    0.0000
   1328 C           8.3379    4.3662   77.5033 C.2       0      C_A    0.0000
   1329 C           9.1970    3.5807   78.4907 C.2       0      C_A    0.0000
   1330 C           9.0399    3.8833   79.9748 C.2       0      C_A    0.0000
   1331 C           8.7286    1.1636   79.0941 C.2       0      C_A    0.0000
   1332 C           9.2353    1.4185   80.5017 C.2       0      C_A    0.0000
   1333 C           8.8264    0.3115   81.4742 C.2       0      C_A    0.0000
   1334 C           9.3336    0.6727   82.8683 C.2       0      C_A    0.0000
   1335 C          -6.4901   -6.6637   51.0307 C.2       0      C_A    0.0000
   1336 C          -5.9483   -6.5512   52.4511 C.2       0      C_A    0.0000
   1337 C          -8.0514   -4.7315   51.5718 C.2       0      C_A    0.0000
   1338 C          -7.5328   -4.7474   53.0065 C.2       0      C_A    0.0000
   1339 C          -8.6227   -4.2071   53.9182 C.2       0      C_A    0.0000
   1340 C          -8.4090   -4.4875   55.3921 C.2       0      C_A    0.0000
   1341 C          -8.6715   -1.6443   54.4178 C.2       0      C_A    0.0000
   1342 C          -8.5294   -1.9575   55.9028 C.2       0      C_A    0.0000
   1343 C          -9.2452   -1.0018   56.8555 C.2       0      C_A    0.0000
   1344 C          -8.7651   -1.2028   58.2935 C.2       0      C_A    0.0000
   1345 C          -9.4932    1.4576   57.4223 C.2       0      C_A    0.0000
   1346 C          -9.0781    1.1530   58.8557 C.2       0      C_A    0.0000
   1347 C          -9.6290    2.2588   59.7454 C.2       0      C_A    0.0000
   1348 C          -9.7300    1.8978   61.2194 C.2       0      C_A    0.0000
   1349 C          -8.7743    4.5889   60.4025 C.2       0      C_A    0.0000
   1350 C          -8.4558    4.0384   61.7896 C.2       0      C_A    0.0000
   1351 C          -8.3414    5.1787   62.7953 C.2       0      C_A    0.0000
   1352 C          -8.0713    4.6219   64.1891 C.2       0      C_A    0.0000
   1353 C          -6.6320    7.0757   63.3485 C.2       0      C_A    0.0000
   1354 C          -6.4871    6.4616   64.7304 C.2       0      C_A    0.0000
   1355 C          -6.1126    7.5515   65.7309 C.2       0      C_A    0.0000
   1356 C          -5.9662    6.9485   67.1202 C.2       0      C_A    0.0000
   1357 C          -3.9499    8.9385   66.3070 C.2       0      C_A    0.0000
   1358 C          -4.0221    8.2514   67.6624 C.2       0      C_A    0.0000
   1359 C          -3.1762    9.0265   68.6646 C.2       0      C_A    0.0000
   1360 C          -3.3257    8.4537   70.0673 C.2       0      C_A    0.0000
   1361 C          -0.7326    9.4339   69.2133 C.2       0      C_A    0.0000
   1362 C          -1.0088    8.8954   70.6134 C.2       0      C_A    0.0000
   1363 C           0.0388    9.3902   71.6013 C.2       0      C_A    0.0000
   1364 C          -0.2995    8.9147   73.0114 C.2       0      C_A    0.0000
   1365 C           2.5073    8.9245   72.1401 C.2       0      C_A    0.0000
   1366 C           2.0495    8.4696   73.5187 C.2       0      C_A    0.0000
   1367 C           3.1788    8.2799   74.5194 C.2       0      C_A    0.0000
   1368 C           2.9696    8.9246   75.8754 C.2       0      C_A    0.0000
   1369 C           5.6866    8.0481   74.9620 C.2       0      C_A    0.0000
   1370 C           5.3682    8.1796   76.4441 C.2       0      C_A    0.0000
   1371 C           6.0345    7.1556   77.3595 C.2       0      C_A    0.0000
   1372 C           5.9956    7.7694   78.7552 C.2       0      C_A    0.0000
   1373 C           8.1186    5.7999   77.9675 C.2       0      C_A    0.0000
   1374 C           7.4492    5.7690   79.3431 C.2       0      C_A    0.0000
   1375 C           8.4396    5.2261   80.3675 C.2       0      C_A    0.0000
   1376 C           7.8219    5.2047   81.7665 C.2       0      C_A    0.0000
   1377 C           8.6525    2.7594   80.9263 C.2       0      C_A    0.0000
   1378 C           9.1399    3.1041   82.3281 C.2       0      C_A    0.0000
   1379 C           8.7760    2.0158   83.3349 C.2       0      C_A    0.0000
   1380 C           9.3693    2.3711   84.6935 C.2       0      C_A    0.0000
   1381 C          -2.1194   -9.5756   51.3253 C.2       0      C_A    0.0000
   1382 C          -4.6965   -8.3578   50.5097 C.2       0      C_A    0.0000
   1383 C          -4.0957   -8.0828   51.8827 C.2       0      C_A    0.0000
   1384 C          -5.2319   -7.8269   52.8729 C.2       0      C_A    0.0000
   1385 C          -4.7311   -7.6460   54.3025 C.2       0      C_A    0.0000
   1386 C          -7.1233   -6.1773   53.3466 C.2       0      C_A    0.0000
   1387 C          -6.9321   -6.4432   54.8275 C.2       0      C_A    0.0000
   1388 C          -7.1611   -5.2728   55.7722 C.2       0      C_A    0.0000
   1389 C          -7.3046   -5.8601   57.1719 C.2       0      C_A    0.0000
   1390 C          -8.8139   -3.3842   56.3515 C.2       0      C_A    0.0000
   1391 C          -8.1577   -3.5319   57.7186 C.2       0      C_A    0.0000
   1392 C          -8.8954   -2.6534   58.7285 C.2       0      C_A    0.0000
   1393 C          -8.2516   -2.8301   60.0933 C.2       0      C_A    0.0000
   1394 C          -9.5031   -0.2542   59.2317 C.2       0      C_A    0.0000
   1395 C          -9.3450   -0.5478   60.7154 C.2       0      C_A    0.0000
   1396 C          -8.9739    0.6368   61.6084 C.2       0      C_A    0.0000
   1397 C          -9.2930    0.2652   63.0568 C.2       0      C_A    0.0000
   1398 C          -9.5655    3.0677   62.1805 C.2       0      C_A    0.0000
   1399 C          -9.6341    2.6825   63.6532 C.2       0      C_A    0.0000
   1400 C          -9.3091    3.8298   64.6020 C.2       0      C_A    0.0000
   1401 C          -9.4217    3.4511   66.0722 C.2       0      C_A    0.0000
   1402 C          -7.7798    5.7633   65.1569 C.2       0      C_A    0.0000
   1403 C          -7.6467    5.2148   66.5733 C.2       0      C_A    0.0000
   1404 C          -7.2857    6.3259   67.5595 C.2       0      C_A    0.0000
   1405 C          -7.1366    5.7724   68.9744 C.2       0      C_A    0.0000
   1406 C          -5.4499    7.9827   68.1123 C.2       0      C_A    0.0000
   1407 C          -5.4135    7.3866   69.5158 C.2       0      C_A    0.0000
   1408 C          -4.7847    8.3681   70.4933 C.2       0      C_A    0.0000
   1409 C          -4.8262    7.8353   71.9210 C.2       0      C_A    0.0000
   1410 C          -2.4356    9.2088   71.0452 C.2       0      C_A    0.0000
   1411 C          -2.6702    8.7241   72.4729 C.2       0      C_A    0.0000
   1412 C          -1.6876    9.3974   73.4176 C.2       0      C_A    0.0000
   1413 C          -2.0213    9.1649   74.8813 C.2       0      C_A    0.0000
   1414 C           0.8458    9.3077   73.9330 C.2       0      C_A    0.0000
   1415 C           0.4839    9.3035   75.4047 C.2       0      C_A    0.0000
   1416 C           1.5296    8.6508   76.2943 C.2       0      C_A    0.0000
   1417 C           1.2685    9.0782   77.7311 C.2       0      C_A    0.0000
   1418 C           3.8918    8.1638   76.8215 C.2       0      C_A    0.0000
   1419 C           3.6866    8.5881   78.2729 C.2       0      C_A    0.0000
   1420 C           4.5449    7.7517   79.2161 C.2       0      C_A    0.0000
   1421 C           4.4434    8.3029   80.6265 C.2       0      C_A    0.0000
   1422 C           6.9743    7.1580   79.7453 C.2       0      C_A    0.0000
   1423 C           6.6546    7.3921   81.2183 C.2       0      C_A    0.0000
   1424 C           7.5508    6.6416   82.1919 C.2       0      C_A    0.0000
   1425 C           7.2287    6.8701   83.6623 C.2       0      C_A    0.0000
   1426 C           8.7453    4.5122   82.7653 C.2       0      C_A    0.0000
   1427 C           8.1264    4.5223   84.1562 C.2       0      C_A    0.0000
   1428 C           8.9973    3.7713   85.1616 C.2       0      C_A    0.0000
   1429 C           8.3497    3.7392   86.5405 C.2       0      C_A    0.0000
   1430 C           9.1698    1.2966   85.7638 C.2       0      C_A    0.0000
   1431 C           9.8327    1.7119   87.0780 C.3       0      C_A    0.0000
   1432 C           9.8973    0.5759   88.0960 C.2       0      C_A    0.0000
   1433 C           9.3031    0.7982   89.4761 C.2       0      C_A    0.0000
   1434 C           2.8485   -9.3507   50.2680 C.2       0      C_A    0.0000
   1435 C           0.3530   -9.3085   50.7834 C.2       0      C_A    0.0000
   1436 C          -0.6861   -9.7993   51.7880 C.2       0      C_A    0.0000
   1437 C          -0.3902   -9.2801   53.1896 C.2       0      C_A    0.0000
   1438 C          -3.1859   -9.2102   52.3503 C.2       0      C_A    0.0000
   1439 C          -2.6571   -8.8517   53.7328 C.2       0      C_A    0.0000
   1440 C          -3.8162   -8.7986   54.7160 C.2       0      C_A    0.0000
   1441 C          -3.2800   -8.4852   56.1020 C.2       0      C_A    0.0000
   1442 C          -5.9318   -7.5168   55.2301 C.2       0      C_A    0.0000
   1443 C          -5.6404   -7.6432   56.7171 C.2       0      C_A    0.0000
   1444 C          -5.9632   -6.4414   57.5957 C.2       0      C_A    0.0000
   1445 C          -5.8111   -6.7003   59.0909 C.2       0      C_A    0.0000
   1446 C          -8.0350   -4.9780   58.1744 C.2       0      C_A    0.0000
   1447 C          -7.4471   -5.0438   59.5778 C.2       0      C_A    0.0000
   1448 C          -8.3409   -4.2807   60.5396 C.2       0      C_A    0.0000
   1449 C          -8.0736   -4.5595   62.0038 C.2       0      C_A    0.0000
   1450 C          -8.4624   -1.7216   61.1031 C.2       0      C_A    0.0000
   1451 C          -8.8520   -2.1777   62.4984 C.2       0      C_A    0.0000
   1452 C          -8.5923   -1.0271   63.4711 C.2       0      C_A    0.0000
   1453 C          -9.0184   -1.4393   64.8759 C.2       0      C_A    0.0000
   1454 C          -8.9210    1.3871   64.0256 C.2       0      C_A    0.0000
   1455 C          -9.3473    0.9892   65.4397 C.2       0      C_A    0.0000
   1456 C          -8.9720    2.0510   66.4662 C.2       0      C_A    0.0000
   1457 C          -9.5648    1.6551   67.8226 C.2       0      C_A    0.0000
   1458 C          -8.9094    4.5014   67.0470 C.2       0      C_A    0.0000
   1459 C          -8.5603    3.8847   68.3976 C.2       0      C_A    0.0000
   1460 C          -8.3702    4.9998   69.4184 C.2       0      C_A    0.0000
   1461 C          -8.1343    4.4480   70.8215 C.2       0      C_A    0.0000
   1462 C          -6.7744    6.8744   69.9623 C.2       0      C_A    0.0000
   1463 C          -6.6435    6.2993   71.3713 C.2       0      C_A    0.0000
   1464 C          -6.2150    7.3881   72.3473 C.2       0      C_A    0.0000
   1465 C          -6.1207    6.8405   73.7688 C.2       0      C_A    0.0000
   1466 C          -4.1456    8.8493   72.8305 C.2       0      C_A    0.0000
   1467 C          -4.4475    8.7059   74.3138 C.2       0      C_A    0.0000
   1468 C          -3.2593    8.3189   75.1818 C.2       0      C_A    0.0000
   1469 C          -3.6472    8.5668   76.6379 C.2       0      C_A    0.0000
   1470 C          -0.8610    8.6656   75.7301 C.2       0      C_A    0.0000
   1471 C          -1.2170    9.0185   77.1686 C.2       0      C_A    0.0000
   1472 C          -0.1227    8.6304   78.1506 C.2       0      C_A    0.0000
   1473 C          -0.4708    9.2595   79.4891 C.2       0      C_A    0.0000
   1474 C           2.2341    8.3262   78.6281 C.2       0      C_A    0.0000
   1475 C           1.9011    8.3894   80.1046 C.2       0      C_A    0.0000
   1476 C           3.0524    8.7614   81.0304 C.2       0      C_A    0.0000
   1477 C           2.5840    8.3726   82.4187 C.2       0      C_A    0.0000
   1478 C           5.1780    7.3991   81.6058 C.2       0      C_A    0.0000
   1479 C           5.0552    7.9927   83.0036 C.2       0      C_A    0.0000
   1480 C           5.7803    7.1451   84.0388 C.2       0      C_A    0.0000
   1481 C           5.7180    7.8555   85.3931 C.2       0      C_A    0.0000
   1482 C           7.9111    5.9451   84.6605 C.2       0      C_A    0.0000
   1483 C           7.1287    5.8437   85.9676 C.2       0      C_A    0.0000
   1484 C           7.9998    5.1508   87.0098 C.2       0      C_A    0.0000
   1485 C           7.2855    5.0761   88.3538 C.2       0      C_A    0.0000
   1486 C           9.2292    3.0261   87.5667 C.2       0      C_A    0.0000
   1487 C           8.5243    3.0049   88.9162 C.2       0      C_A    0.0000
   1488 C           9.3547    2.2439   89.9395 C.2       0      C_A    0.0000
   1489 C           8.6895    2.3180   91.3104 C.2       0      C_A    0.0000
   1490 C           3.8599   -8.3244   50.7411 C.2       0      C_A    0.0000
   1491 C           4.4845   -8.7696   52.0621 C.2       0      C_A    0.0000
   1492 C           1.7533   -9.6925   51.2590 C.2       0      C_A    0.0000
   1493 C           2.0025   -9.0506   52.6180 C.2       0      C_A    0.0000
   1494 C           1.0178   -9.6848   53.5898 C.2       0      C_A    0.0000
   1495 C           1.3586   -9.4786   55.0495 C.2       0      C_A    0.0000
   1496 C          -1.5009   -9.7640   54.1085 C.2       0      C_A    0.0000
   1497 C          -1.1333   -9.8167   55.5804 C.2       0      C_A    0.0000
   1498 C          -2.2473   -9.5087   56.5690 C.2       0      C_A    0.0000
   1499 C          -1.7014   -9.0117   57.9047 C.2       0      C_A    0.0000
   1500 C          -4.4245   -8.4672   57.1097 C.2       0      C_A    0.0000
   1501 C          -3.8905   -8.0762   58.4799 C.2       0      C_A    0.0000
   1502 C          -5.0483   -7.9588   59.4589 C.2       0      C_A    0.0000
   1503 C          -4.5576   -7.7965   60.8934 C.2       0      C_A    0.0000
   1504 C          -7.0550   -6.4674   59.9345 C.2       0      C_A    0.0000
   1505 C          -6.8362   -6.7110   61.4244 C.2       0      C_A    0.0000
   1506 C          -6.9023   -5.4808   62.3166 C.2       0      C_A    0.0000
   1507 C          -7.0887   -5.9692   63.7499 C.2       0      C_A    0.0000
   1508 C          -7.9751   -3.3459   62.9148 C.2       0      C_A    0.0000
   1509 C          -8.3508   -3.8197   64.3126 C.2       0      C_A    0.0000
   1510 C          -8.2610   -2.6848   65.3215 C.2       0      C_A    0.0000
   1511 C          -8.7910   -3.1487   66.6721 C.2       0      C_A    0.0000
   1512 C          -8.7156   -0.3295   65.8774 C.2       0      C_A    0.0000
   1513 C          -9.2061   -0.7436   67.2655 C.2       0      C_A    0.0000
   1514 C          -8.9548    0.3457   68.3073 C.2       0      C_A    0.0000
   1515 C          -9.4823   -0.1136   69.6684 C.2       0      C_A    0.0000
   1516 C          -9.4924    2.7723   68.8557 C.2       0      C_A    0.0000
   1517 C          -9.0326    2.3197   70.2388 C.2       0      C_A    0.0000
   1518 C          -9.2637    3.4951   71.1810 C.2       0      C_A    0.0000
   1519 C          -9.3697    3.1348   72.6550 C.2       0      C_A    0.0000
   1520 C          -7.9171    5.5852   71.8074 C.2       0      C_A    0.0000
   1521 C          -7.7476    5.0245   73.2167 C.2       0      C_A    0.0000
   1522 C          -7.4433    6.1854   74.1640 C.2       0      C_A    0.0000
   1523 C          -7.3894    5.7145   75.6125 C.2       0      C_A    0.0000
   1524 C          -5.7614    8.0175   74.6642 C.2       0      C_A    0.0000
   1525 C          -6.0241    7.8321   76.1471 C.2       0      C_A    0.0000
   1526 C          -4.8266    7.7069   77.0743 C.2       0      C_A    0.0000
   1527 C          -5.2653    8.1444   78.4721 C.2       0      C_A    0.0000
   1528 C          -2.4950    8.3134   77.6046 C.2       0      C_A    0.0000
   1529 C          -2.8960    8.8077   78.9920 C.2       0      C_A    0.0000
   1530 C          -1.7663    8.6575   80.0080 C.2       0      C_A    0.0000
   1531 C          -2.2134    9.2956   81.3182 C.2       0      C_A    0.0000
   1532 C           0.6689    9.2017   80.4917 C.2       0      C_A    0.0000
   1533 C           0.2293    8.8422   81.9081 C.2       0      C_A    0.0000
   1534 C           1.3902    9.2221   82.8217 C.2       0      C_A    0.0000
   1535 C           1.0758    8.9857   84.2840 C.2       0      C_A    0.0000
   1536 C           3.6166    8.0945   83.4842 C.2       0      C_A    0.0000
   1537 C           3.5548    8.9025   84.7706 C.2       0      C_A    0.0000
   1538 C           4.2910    8.1425   85.8672 C.2       0      C_A    0.0000
   1539 C           4.2978    8.9170   87.1802 C.2       0      C_A    0.0000
   1540 C           6.5941    7.1898   86.4478 C.2       0      C_A    0.0000
   1541 C           5.8558    7.0182   87.7705 C.2       0      C_A    0.0000
   1542 C           6.8242    6.4582   88.8071 C.2       0      C_A    0.0000
   1543 C           6.1494    6.3416   90.1686 C.2       0      C_A    0.0000
   1544 C           8.2155    4.4282   89.3745 C.2       0      C_A    0.0000
   1545 C           7.5572    4.4085   90.7491 C.2       0      C_A    0.0000
   1546 C           8.4902    3.7572   91.7625 C.2       0      C_A    0.0000
   1547 C           7.8359    3.7646   93.1399 C.2       0      C_A    0.0000
   1548 C           9.4579    1.4774   92.3218 C.2       0      C_A    0.0000
   1549 C           8.8357    1.6023   93.7085 C.2       0      C_A    0.0000
   1550 C           9.6100    0.7382   94.6963 C.2       0      C_A    0.0000
   1551 C           9.0880    0.9246   96.1151 C.2       0      C_A    0.0000
   1552 C           8.0630   -5.4525   50.9291 C.2       0      C_A    0.0000
   1553 C           6.5969   -7.4433   51.5810 C.2       0      C_A    0.0000
   1554 C           5.4414   -7.6909   52.5418 C.2       0      C_A    0.0000
   1555 C           6.0083   -7.8750   53.9481 C.2       0      C_A    0.0000
   1556 C           3.4388   -9.1410   53.1195 C.2       0      C_A    0.0000
   1557 C           3.5504   -8.2729   54.3692 C.2       0      C_A    0.0000
   1558 C           2.4486   -8.4776   55.4001 C.2       0      C_A    0.0000
   1559 C           2.9684   -8.8223   56.7931 C.2       0      C_A    0.0000
   1560 C           0.1942   -9.2037   55.9861 C.2       0      C_A    0.0000
   1561 C           0.6514   -9.7183   57.3494 C.2       0      C_A    0.0000
   1562 C          -0.4690   -9.7649   58.3801 C.2       0      C_A    0.0000
   1563 C          -0.0491   -9.2282   59.7480 C.2       0      C_A    0.0000
   1564 C          -2.8344   -9.0813   58.9179 C.2       0      C_A    0.0000
   1565 C          -2.3796   -8.7492   60.3315 C.2       0      C_A    0.0000
   1566 C          -3.6030   -8.9434   61.2159 C.2       0      C_A    0.0000
   1567 C          -3.3293   -9.1655   62.6922 C.2       0      C_A    0.0000
   1568 C          -5.7633   -7.7267   61.8145 C.2       0      C_A    0.0000
   1569 C          -5.4140   -7.8433   63.2908 C.2       0      C_A    0.0000
   1570 C          -5.8181   -6.6782   64.1813 C.2       0      C_A    0.0000
   1571 C          -5.9311   -7.2096   65.6050 C.2       0      C_A    0.0000
   1572 C          -7.3083   -4.8352   64.7466 C.2       0      C_A    0.0000
   1573 C          -7.6371   -5.4424   66.1012 C.2       0      C_A    0.0000
   1574 C          -8.2274   -4.4867   67.1252 C.2       0      C_A    0.0000
   1575 C          -7.6504   -4.5251   68.5322 C.2       0      C_A    0.0000
   1576 C          -8.5622   -2.0553   67.7095 C.2       0      C_A    0.0000
   1577 C          -9.0742   -2.4592   69.0900 C.2       0      C_A    0.0000
   1578 C          -8.7114   -1.3629   70.0871 C.2       0      C_A    0.0000
   1579 C          -8.9709   -1.7726   71.5301 C.2       0      C_A    0.0000
   1580 C          -9.6029    0.9960   70.7049 C.2       0      C_A    0.0000
   1581 C          -9.3203    0.6609   72.1644 C.2       0      C_A    0.0000
   1582 C          -8.7252    1.7993   72.9979 C.2       0      C_A    0.0000
   1583 C          -8.9233    1.4738   74.4784 C.2       0      C_A    0.0000
   1584 C          -9.0279    4.2873   73.5954 C.2       0      C_A    0.0000
   1585 C          -9.1071    3.9000   75.0656 C.2       0      C_A    0.0000
   1586 C          -8.7104    5.0454   75.9906 C.2       0      C_A    0.0000
   1587 C          -8.8080    4.6581   77.4636 C.2       0      C_A    0.0000
   1588 C          -7.1672    6.9076   76.5386 C.2       0      C_A    0.0000
   1589 C          -7.0128    6.3902   77.9657 C.2       0      C_A    0.0000
   1590 C          -6.5307    7.4463   78.9469 C.3       0      C_A    0.0000
   1591 C          -6.2643    6.8029   80.2907 C.2       0      C_A    0.0000
   1592 C          -4.1240    8.0499   79.4827 C.2       0      C_A    0.0000
   1593 C          -4.5432    8.5285   80.8743 C.2       0      C_A    0.0000
   1594 C          -3.3612    8.4406   81.8424 C.2       0      C_A    0.0000
   1595 C          -3.7141    8.7466   83.2932 C.2       0      C_A    0.0000
   1596 C          -1.0619    9.5544   82.2825 C.2       0      C_A    0.0000
   1597 C          -1.4137    9.4977   83.7597 C.2       0      C_A    0.0000
   1598 C          -0.2312    9.6500   84.6961 C.2       0      C_A    0.0000
   1599 C          -0.4793    9.1669   86.1103 C.2       0      C_A    0.0000
   1600 C           2.2143    9.4902   85.1675 C.3       0      C_A    0.0000
   1601 C           1.8639    9.2220   86.6268 C.2       0      C_A    0.0000
   1602 C           2.9780    9.5557   87.6036 C.2       0      C_A    0.0000
   1603 C           2.4714    9.2252   89.0051 C.2       0      C_A    0.0000
   1604 C           5.1947    8.3094   88.2485 C.2       0      C_A    0.0000
   1605 C           4.4941    8.0469   89.5755 C.2       0      C_A    0.0000
   1606 C           5.5538    7.6760   90.6031 C.2       0      C_A    0.0000
   1607 C           4.9359    7.5371   91.9884 C.2       0      C_A    0.0000
   1608 C           7.1536    5.8121   91.1837 C.2       0      C_A    0.0000
   1609 C           6.5112    5.7535   92.5647 C.2       0      C_A    0.0000
   1610 C           7.5067    5.1891   93.5674 C.2       0      C_A    0.0000
   1611 C           6.9058    5.1781   94.9688 C.2       0      C_A    0.0000
   1612 C           8.7354    3.0556   94.1447 C.2       0      C_A    0.0000
   1613 C           8.1416    3.1315   95.5491 C.2       0      C_A    0.0000
   1614 C           9.0724    2.4019   96.5047 C.2       0      C_A    0.0000
   1615 C           8.5773    2.4951   97.9366 C.2       0      C_A    0.0000
   1616 C           9.4967    0.3086   98.5342 C.2       0      C_A    0.0000
   1617 C           8.9345   -3.0982   50.3753 C.2       0      C_A    0.0000
   1618 C           8.2665   -4.0134   51.3914 C.2       0      C_A    0.0000
   1619 C           8.9368   -3.9046   52.7582 C.2       0      C_A    0.0000
   1620 C           7.0995   -6.0532   51.9406 C.2       0      C_A    0.0000
   1621 C           7.7196   -6.0676   53.3365 C.2       0      C_A    0.0000
   1622 C           6.7251   -6.5924   54.3671 C.2       0      C_A    0.0000
   1623 C           7.3951   -6.6887   55.7358 C.2       0      C_A    0.0000
   1624 C           4.9475   -8.2730   54.9735 C.2       0      C_A    0.0000
   1625 C           5.0174   -7.4228   56.2421 C.2       0      C_A    0.0000
   1626 C           3.9708   -7.7885   57.2843 C.2       0      C_A    0.0000
   1627 C           4.5132   -8.1703   58.6584 C.2       0      C_A    0.0000
   1628 C           1.8438   -8.9003   57.8242 C.2       0      C_A    0.0000
   1629 C           2.4084   -9.3867   59.1567 C.2       0      C_A    0.0000
   1630 C           1.3121   -9.7797   60.1391 C.2       0      C_A    0.0000
   1631 C           1.6730   -9.7189   61.6134 C.2       0      C_A    0.0000
   1632 C          -1.1627   -9.5731   60.7305 C.2       0      C_A    0.0000
   1633 C          -0.7907   -9.1941   62.1549 C.2       0      C_A    0.0000
   1634 C          -1.9301   -9.6357   63.0665 C.2       0      C_A    0.0000
   1635 C          -1.6310   -9.7362   64.5537 C.2       0      C_A    0.0000
   1636 C          -3.9461   -8.1244   63.6103 C.2       0      C_A    0.0000
   1637 C          -3.8701   -8.6256   65.0491 C.2       0      C_A    0.0000
   1638 C          -4.5516   -7.6776   66.0357 C.2       0      C_A    0.0000
   1639 C          -4.5816   -8.3378   67.4056 C.2       0      C_A    0.0000
   1640 C          -6.3808   -6.1425   66.6002 C.2       0      C_A    0.0000
   1641 C          -6.6412   -6.8071   67.9394 C.2       0      C_A    0.0000
   1642 C          -7.3722   -5.9573   68.9688 C.2       0      C_A    0.0000
   1643 C          -6.8032   -5.9250   70.3804 C.2       0      C_A    0.0000
   1644 C          -8.6431   -3.8638   69.4816 C.2       0      C_A    0.0000
   1645 C          -8.5854   -4.1905   70.9663 C.2       0      C_A    0.0000
   1646 C          -8.1596   -3.0301   71.8581 C.2       0      C_A    0.0000
   1647 C          -8.3780   -3.4184   73.3182 C.2       0      C_A    0.0000
   1648 C          -8.5415   -0.6213   72.4361 C.2       0      C_A    0.0000
   1649 C          -8.7362   -0.9856   73.9063 C.2       0      C_A    0.0000
   1650 C          -8.2622    0.1419   74.8249 C.2       0      C_A    0.0000
   1651 C          -8.5229   -0.2108   76.2892 C.2       0      C_A    0.0000
   1652 C          -8.4010    2.5871   75.3876 C.2       0      C_A    0.0000
   1653 C          -8.6445    2.2284   76.8552 C.2       0      C_A    0.0000
   1654 C          -8.1296    3.3309   77.7745 C.2       0      C_A    0.0000
   1655 C          -8.1995    2.9575   79.2528 C.2       0      C_A    0.0000
   1656 C          -8.3344    5.7681   78.3921 C.2       0      C_A    0.0000
   1657 C          -8.4160    5.4037   79.8629 C.2       0      C_A    0.0000
   1658 C          -7.2289    5.7305   80.7492 C.2       0      C_A    0.0000
   1659 C          -7.7352    5.9009   82.1725 C.2       0      C_A    0.0000
   1660 C          -5.7721    7.7642   81.3641 C.2       0      C_A    0.0000
   1661 C          -5.4793    7.0468   82.6729 C.2       0      C_A    0.0000
   1662 C          -4.9708    8.0082   83.7331 C.2       0      C_A    0.0000
   1663 C          -4.9129    7.3436   85.1026 C.2       0      C_A    0.0000
   1664 C          -2.4783    8.4834   84.1463 C.2       0      C_A    0.0000
   1665 C          -2.7358    8.3722   85.6435 C.2       0      C_A    0.0000
   1666 C          -1.9167    9.2732   86.5609 C.2       0      C_A    0.0000
   1667 C          -2.0041    8.6638   87.9545 C.2       0      C_A    0.0000
   1668 C           0.5350    9.8859   86.9784 C.2       0      C_A    0.0000
   1669 C           0.1466   10.0066   88.4429 C.2       0      C_A    0.0000
   1670 C           1.3399   10.1789   89.3769 C.2       0      C_A    0.0000
   1671 C           0.9587   10.2338   90.8562 C.2       0      C_A    0.0000
   1672 C           3.6198    9.2191   90.0011 C.2       0      C_A    0.0000
   1673 C           3.0708    9.0150   91.4111 C.2       0      C_A    0.0000
   1674 C           4.2340    8.8317   92.3789 C.2       0      C_A    0.0000
   1675 C           3.7299    8.7612   93.8158 C.2       0      C_A    0.0000
   1676 C           6.0235    7.1361   92.9769 C.2       0      C_A    0.0000
   1677 C           5.4468    7.0814   94.3847 C.2       0      C_A    0.0000
   1678 C           6.4926    6.5826   95.3782 C.2       0      C_A    0.0000
   1679 C           5.8437    6.5494   96.7529 C.2       0      C_A    0.0000
   1680 C           7.9545    4.5981   95.9023 C.2       0      C_A    0.0000
   1681 C           7.7871    4.9332   97.3697 C.2       0      C_A    0.0000
   1682 C           7.9280    3.7961   98.3609 C.2       0      C_A    0.0000
   1683 C           8.2869    4.3242   99.7385 C.2       0      C_A    0.0000
   1684 C           9.5529    1.7987   98.8773 C.2       0      C_A    0.0000
   1685 C           9.4129    2.1713  100.3473 C.2       0      C_A    0.0000
   1686 C           8.6748   -1.6953   50.9035 C.2       0      C_A    0.0000
   1687 C           9.4233   -1.4602   52.2052 C.2       0      C_A    0.0000
   1688 C           8.8906   -2.4552   53.2278 C.2       0      C_A    0.0000
   1689 C           9.5350   -2.2197   54.5830 C.2       0      C_A    0.0000
   1690 C           8.1042   -4.6598   53.7832 C.2       0      C_A    0.0000
   1691 C           8.7990   -4.6864   55.1391 C.2       0      C_A    0.0000
   1692 C           7.8633   -5.3036   56.1761 C.2       0      C_A    0.0000
   1693 C           8.5037   -5.3582   57.5586 C.2       0      C_A    0.0000
   1694 C           6.4500   -7.3308   56.7401 C.2       0      C_A    0.0000
   1695 C           6.7081   -7.0603   58.2108 C.2       0      C_A    0.0000
   1696 C           5.4780   -7.0850   59.1056 C.2       0      C_A    0.0000
   1697 C           5.9695   -7.2875   60.5342 C.2       0      C_A    0.0000
   1698 C           3.3584   -8.3022   59.6540 C.2       0      C_A    0.0000
   1699 C           3.8796   -8.5957   61.0544 C.2       0      C_A    0.0000
   1700 C           2.7273   -8.7108   62.0490 C.2       0      C_A    0.0000
   1701 C           3.3125   -9.1287   63.3976 C.2       0      C_A    0.0000
   1702 C           0.5103   -9.8635   62.5866 C.2       0      C_A    0.0000
   1703 C           0.8248   -9.2912   63.9608 C.2       0      C_A    0.0000
   1704 C          -0.1675   -9.8651   64.9661 C.2       0      C_A    0.0000
   1705 C           0.0848   -9.2450   66.3363 C.2       0      C_A    0.0000
   1706 C          -2.4185   -8.8173   65.4759 C.2       0      C_A    0.0000
   1707 C          -2.3680   -9.3587   66.9050 C.2       0      C_A    0.0000
   1708 C          -3.1240   -8.4148   67.8325 C.2       0      C_A    0.0000
   1709 C          -2.8800   -8.5903   69.3145 C.2       0      C_A    0.0000
   1710 C          -5.5417   -7.7342   68.4187 C.2       0      C_A    0.0000
   1711 C          -4.9967   -7.4688   69.8071 C.2       0      C_A    0.0000
   1712 C          -6.1665   -7.2551   70.7608 C.2       0      C_A    0.0000
   1713 C          -5.6826   -7.1591   72.2005 C.2       0      C_A    0.0000
   1714 C          -7.9477   -5.5335   71.3037 C.2       0      C_A    0.0000
   1715 C          -7.7743   -5.8347   72.7832 C.2       0      C_A    0.0000
   1716 C          -7.5529   -4.6435   73.7015 C.2       0      C_A    0.0000
   1717 C          -7.9222   -5.0591   75.1245 C.2       0      C_A    0.0000
   1718 C          -7.9974   -2.2741   74.2542 C.2       0      C_A    0.0000
   1719 C          -8.3094   -2.6479   75.7010 C.2       0      C_A    0.0000
   1720 C          -7.8439   -1.5315   76.6247 C.2       0      C_A    0.0000
   1721 C          -7.8928   -1.8828   78.1040 C.2       0      C_A    0.0000
   1722 C          -7.9932    0.8936   77.1976 C.2       0      C_A    0.0000
   1723 C          -8.0603    0.5467   78.6832 C.2       0      C_A    0.0000
   1724 C          -8.7981    1.5817   79.5246 C.2       0      C_A    0.0000
   1725 C          -8.7038    1.2073   81.0077 C.2       0      C_A    0.0000
   1726 C          -8.8739    3.9819   80.1560 C.2       0      C_A    0.0000
   1727 C          -8.5092    3.5764   81.5850 C.2       0      C_A    0.0000
   1728 C          -8.6270    4.7234   82.5782 C.2       0      C_A    0.0000
   1729 C          -8.5509    4.3054   84.0392 C.2       0      C_A    0.0000
   1730 C          -6.5897    6.1276   83.1420 C.2       0      C_A    0.0000
   1731 C          -7.1843    6.3271   84.5246 C.2       0      C_A    0.0000
   1732 C          -6.3619    7.1418   85.5096 C.2       0      C_A    0.0000
   1733 C          -6.6550    6.9099   86.9819 C.2       0      C_A    0.0000
   1734 C          -4.1904    8.2648   86.0749 C.2       0      C_A    0.0000
   1735 C          -4.2662    7.7380   87.5086 C.2       0      C_A    0.0000
   1736 C          -3.4503    8.6584   88.4210 C.2       0      C_A    0.0000
   1737 C          -3.6823    8.4894   89.9132 C.2       0      C_A    0.0000
   1738 C          -0.8812    8.9944   88.9274 C.2       0      C_A    0.0000
   1739 C          -1.3321    9.3267   90.3428 C.2       0      C_A    0.0000
   1740 C          -0.1147    9.2267   91.2648 C.2       0      C_A    0.0000
   1741 C          -0.5127    9.4476   92.7238 C.2       0      C_A    0.0000
   1742 C           2.1776   10.1951   91.7757 C.2       0      C_A    0.0000
   1743 C           1.8112   10.2652   93.2580 C.2       0      C_A    0.0000
   1744 C           3.0332   10.0745   94.1573 C.2       0      C_A    0.0000
   1745 C           2.6829   10.1909   95.6403 C.2       0      C_A    0.0000
   1746 C           4.8924    8.4520   94.7556 C.2       0      C_A    0.0000
   1747 C           4.4047    8.4642   96.1984 C.2       0      C_A    0.0000
   1748 C           5.4874    7.9705   97.1585 C.2       0      C_A    0.0000
   1749 C           4.9286    8.0455   98.5688 C.2       0      C_A    0.0000
   1750 C           6.5543    5.7136   97.8012 C.2       0      C_A    0.0000
   1751 C           6.8397    6.4033   99.1295 C.2       0      C_A    0.0000
   1752 C           7.2989    5.4001  100.1927 C.2       0      C_A    0.0000
   1753 C           8.2662    3.1215  100.6760 C.2       0      C_A    0.0000
   1754 C           8.9651   -0.9090   55.0983 C.2       0      C_A    0.0000
   1755 C           9.4711   -0.4611   56.4556 C.2       0      C_A    0.0000
   1756 C           9.3425   -3.3379   55.6006 C.2       0      C_A    0.0000
   1757 C           8.8410   -2.8996   56.9716 C.2       0      C_A    0.0000
   1758 C           9.1045   -4.0175   57.9785 C.2       0      C_A    0.0000
   1759 C           8.7512   -3.6096   59.4111 C.2       0      C_A    0.0000
   1760 C           7.4542   -5.7864   58.5700 C.2       0      C_A    0.0000
   1761 C           8.0239   -5.9455   59.9783 C.2       0      C_A    0.0000
   1762 C           6.8775   -6.1315   60.9668 C.2       0      C_A    0.0000
   1763 C           7.4452   -6.4350   62.3457 C.2       0      C_A    0.0000
   1764 C           4.8122   -7.4733   61.5101 C.2       0      C_A    0.0000
   1765 C           5.3932   -7.7878   62.8849 C.2       0      C_A    0.0000
   1766 C           4.3050   -8.0931   63.9143 C.2       0      C_A    0.0000
   1767 C           4.9246   -8.4477   65.2608 C.3       0      C_A    0.0000
   1768 C           2.2591   -9.5318   64.4230 C.2       0      C_A    0.0000
   1769 C           2.4585   -8.8714   65.7844 C.2       0      C_A    0.0000
   1770 C           1.5137   -9.5317   66.7880 C.2       0      C_A    0.0000
   1771 C           1.7382   -9.0191   68.2073 C.2       0      C_A    0.0000
   1772 C          -0.9524   -9.7187   67.3452 C.2       0      C_A    0.0000
   1773 C          -0.6190   -9.1914   68.7321 C.2       0      C_A    0.0000
   1774 C          -1.7420   -9.5168   69.7037 C.2       0      C_A    0.0000
   1775 C          -1.3586   -9.1232   71.1228 C.2       0      C_A    0.0000
   1776 C          -4.0974   -8.6279   70.2196 C.2       0      C_A    0.0000
   1777 C          -3.6309   -8.3943   71.6499 C.2       0      C_A    0.0000
   1778 C          -4.8280   -8.3652   72.5891 C.2       0      C_A    0.0000
   1779 C          -4.3496   -8.1945   74.0258 C.2       0      C_A    0.0000
   1780 C          -6.8670   -7.0076   73.1456 C.2       0      C_A    0.0000
   1781 C          -6.3146   -6.8646   74.5620 C.2       0      C_A    0.0000
   1782 C          -7.3478   -6.3989   75.5652 C.3       0      C_A    0.0000
   1783 C          -6.7086   -6.3180   76.9435 C.2       0      C_A    0.0000
   1784 C          -7.6171   -3.9409   76.1113 C.2       0      C_A    0.0000
   1785 C          -8.1469   -4.3675   77.4686 C.2       0      C_A    0.0000
   1786 C          -8.4331   -3.2599   78.4587 C.2       0      C_A    0.0000
   1787 C          -7.9738   -3.4978   79.8858 C.2       0      C_A    0.0000
   1788 C          -8.6033   -0.8467   78.9683 C.2       0      C_A    0.0000
   1789 C          -8.4813   -1.1642   80.4636 C.2       0      C_A    0.0000
   1790 C          -9.3079   -0.1683   81.2689 C.2       0      C_A    0.0000
   1791 C          -9.5028   -0.5632   82.7309 C.2       0      C_A    0.0000
   1792 C          -9.2249    2.2834   81.9550 C.2       0      C_A    0.0000
   1793 C          -8.8271    1.8453   83.3574 C.2       0      C_A    0.0000
   1794 C          -9.0643    2.9252   84.4105 C.2       0      C_A    0.0000
   1795 C          -8.4832    2.3772   85.7046 C.2       0      C_A    0.0000
   1796 C          -7.4705    4.8930   84.9379 C.2       0      C_A    0.0000
   1797 C          -7.9272    4.8030   86.3810 C.2       0      C_A    0.0000
   1798 C          -6.9356    5.4578   87.3374 C.2       0      C_A    0.0000
   1799 C          -7.5255    5.4019   88.7433 C.2       0      C_A    0.0000
   1800 C          -5.7180    7.6250   87.9499 C.2       0      C_A    0.0000
   1801 C          -5.8995    7.2754   89.4204 C.2       0      C_A    0.0000
   1802 C          -4.6214    7.3426   90.2497 C.2       0      C_A    0.0000
   1803 C          -5.0089    7.3841   91.7248 C.2       0      C_A    0.0000
   1804 C          -2.4193    8.3447   90.7593 C.2       0      C_A    0.0000
   1805 C          -2.8030    8.5238   92.2258 C.2       0      C_A    0.0000
   1806 C          -1.5830    8.4420   93.1381 C.2       0      C_A    0.0000
   1807 C          -2.0144    8.6750   94.5850 C.2       0      C_A    0.0000
   1808 C           0.6970    9.2966   93.6447 C.2       0      C_A    0.0000
   1809 C           0.2990    9.5345   95.1018 C.2       0      C_A    0.0000
   1810 C           1.4917    9.3203   96.0303 C.2       0      C_A    0.0000
   1811 C           1.1049    9.6064   97.4804 C.2       0      C_A    0.0000
   1812 C           3.8850    9.8607   96.5268 C.2       0      C_A    0.0000
   1813 C           3.5539   10.0294   98.0078 C.2       0      C_A    0.0000
   1814 C           4.7033    9.5225   98.8814 C.2       0      C_A    0.0000
   1815 C           4.4178    9.8027  100.3517 C.2       0      C_A    0.0000
   1816 C           5.6788    7.2606   99.6368 C.2       0      C_A    0.0000
   1817 C           4.6450    6.4710  100.4376 C.2       0      C_A    0.0000
   1818 C           9.5255   -1.6199   57.4423 C.2       0      C_A    0.0000
   1819 C           9.0719   -1.2594   58.8515 C.2       0      C_A    0.0000
   1820 C           9.5427   -2.3626   59.7854 C.2       0      C_A    0.0000
   1821 C           9.5355   -1.9931   61.2569 C.2       0      C_A    0.0000
   1822 C           8.9498   -4.7927   60.3460 C.2       0      C_A    0.0000
   1823 C           9.0774   -4.4571   61.8225 C.2       0      C_A    0.0000
   1824 C           8.4689   -5.4174   62.8356 C.2       0      C_A    0.0000
   1825 C           8.0524   -4.7544   64.1448 C.2       0      C_A    0.0000
   1826 C           6.3080   -6.6516   63.3413 C.2       0      C_A    0.0000
   1827 C           6.8519   -6.9089   64.7421 C.2       0      C_A    0.0000
   1828 C           5.6957   -7.2090   65.6863 C.2       0      C_A    0.0000
   1829 C           5.9752   -7.0344   67.1632 C.2       0      C_A    0.0000
   1830 C           3.9000   -8.9397   66.2673 C.2       0      C_A    0.0000
   1831 C           4.0076   -8.3421   67.6634 C.2       0      C_A    0.0000
   1832 C           3.1894   -9.1683   68.6495 C.2       0      C_A    0.0000
   1833 C           3.3209   -8.6202   70.0671 C.2       0      C_A    0.0000
   1834 C           0.7570   -9.6651   69.1802 C.2       0      C_A    0.0000
   1835 C           1.0092   -9.1713   70.6005 C.2       0      C_A    0.0000
   1836 C          -0.0320   -9.7234   71.5683 C.2       0      C_A    0.0000
   1837 C           0.2432   -9.2252   72.9831 C.2       0      C_A    0.0000
   1838 C          -2.5279   -9.3630   72.0691 C.2       0      C_A    0.0000
   1839 C          -2.1260   -9.0185   73.4965 C.2       0      C_A    0.0000
   1840 C          -3.3131   -9.2406   74.4231 C.2       0      C_A    0.0000
   1841 C          -2.9213   -9.0187   75.8795 C.2       0      C_A    0.0000
   1842 C          -5.5300   -8.1020   74.9844 C.2       0      C_A    0.0000
   1843 C          -4.9971   -7.9706   76.4084 C.2       0      C_A    0.0000
   1844 C          -6.1027   -7.6435   77.3964 C.2       0      C_A    0.0000
   1845 C          -5.4915   -7.5433   78.7930 C.2       0      C_A    0.0000
   1846 C          -7.6586   -5.7171   77.9677 C.2       0      C_A    0.0000
   1847 C          -6.9861   -5.6452   79.3295 C.2       0      C_A    0.0000
   1848 C          -7.9297   -4.9528   80.3069 C.2       0      C_A    0.0000
   1849 C          -7.2927   -5.0144   81.6838 C.2       0      C_A    0.0000
   1850 C          -8.8425   -2.6128   80.7616 C.2       0      C_A    0.0000
   1851 C          -8.8331   -2.9874   82.2315 C.2       0      C_A    0.0000
   1852 C          -8.7740   -1.8142   83.2000 C.2       0      C_A    0.0000
   1853 C          -9.2544   -2.3585   84.5477 C.2       0      C_A    0.0000
   1854 C          -9.5329    0.5524   83.7698 C.2       0      C_A    0.0000
   1855 C          -9.0486    0.0860   85.1456 C.2       0      C_A    0.0000
   1856 C          -9.2934    1.1810   86.1782 C.2       0      C_A    0.0000
   1857 C          -8.8254    0.6791   87.5303 C.2       0      C_A    0.0000
   1858 C          -8.0005    3.3362   86.7717 C.2       0      C_A    0.0000
   1859 C          -8.6728    3.1890   88.1228 C.2       0      C_A    0.0000
   1860 C          -7.8525    3.9662   89.1450 C.2       0      C_A    0.0000
   1861 C          -8.4891    3.9078   90.5284 C.2       0      C_A    0.0000
   1862 C          -6.4631    5.8903   89.7141 C.2       0      C_A    0.0000
   1863 C          -6.9644    5.8546   91.1536 C.2       0      C_A    0.0000
   1864 C          -5.7978    6.1332   92.0943 C.2       0      C_A    0.0000
   1865 C          -6.2889    6.2046   93.5349 C.2       0      C_A    0.0000
   1866 C          -3.7792    7.4223   92.6251 C.2       0      C_A    0.0000
   1867 C          -4.2321    7.5819   94.0728 C.2       0      C_A    0.0000
   1868 C          -3.0287    7.6164   95.0073 C.2       0      C_A    0.0000
   1869 C          -3.5108    7.8474   96.4368 C.2       0      C_A    0.0000
   1870 C          -0.8169    8.5833   95.5244 C.2       0      C_A    0.0000
   1871 C          -1.2574    8.8718   96.9586 C.2       0      C_A    0.0000
   1872 C          -0.0728    8.7360   97.9093 C.2       0      C_A    0.0000
   1873 C          -0.4972    9.0903   99.3320 C.2       0      C_A    0.0000
   1874 C           2.2751    9.2996   98.4096 C.2       0      C_A    0.0000
   1875 C           1.9317    9.6231   99.8625 C.2       0      C_A    0.0000
   1876 C           3.0814    9.2054  100.7783 C.2       0      C_A    0.0000
   1877 C           8.9820   -0.6140   61.5911 C.2       0      C_A    0.0000
   1878 C           9.4138   -0.2402   63.0079 C.2       0      C_A    0.0000
   1879 C           8.8850   -2.9971   62.2008 C.2       0      C_A    0.0000
   1880 C           9.4530   -2.7081   63.5899 C.2       0      C_A    0.0000
   1881 C           9.0979   -3.7586   64.6339 C.2       0      C_A    0.0000
   1882 C           8.7076   -3.1650   65.9885 C.2       0      C_A    0.0000
   1883 C           7.8306   -5.8337   65.1985 C.2       0      C_A    0.0000
   1884 C           7.5249   -5.2392   66.5663 C.2       0      C_A    0.0000
   1885 C           7.2803   -6.3676   67.5599 C.2       0      C_A    0.0000
   1886 C           7.0848   -5.8045   68.9622 C.2       0      C_A    0.0000
   1887 C           5.4433   -8.0986   68.1057 C.2       0      C_A    0.0000
   1888 C           5.4145   -7.5131   69.5149 C.2       0      C_A    0.0000
   1889 C           4.7725   -8.4742   70.5097 C.2       0      C_A    0.0000
   1890 C           4.7736   -7.8686   71.9096 C.2       0      C_A    0.0000
   1891 C           2.4480   -9.3969   71.0489 C.2       0      C_A    0.0000
   1892 C           2.5948   -8.8293   72.4579 C.2       0      C_A    0.0000
   1893 C           1.6626   -9.5256   73.4468 C.2       0      C_A    0.0000
   1894 C           1.8231   -8.9305   74.8431 C.2       0      C_A    0.0000
   1895 C          -0.8415   -9.7096   73.9382 C.2       0      C_A    0.0000
   1896 C          -0.5667   -9.2724   75.3734 C.2       0      C_A    0.0000
   1897 C          -1.6798   -9.8014   76.2743 C.2       0      C_A    0.0000
   1898 C          -1.3994   -9.7147   77.7658 C.2       0      C_A    0.0000
   1899 C          -4.1538   -9.1928   76.7539 C.2       0      C_A    0.0000
   1900 C          -3.8437   -9.3891   78.2313 C.2       0      C_A    0.0000
   1901 C          -4.9545   -8.9201   79.1649 C.2       0      C_A    0.0000
   1902 C          -4.6555   -9.1357   80.6424 C.2       0      C_A    0.0000
   1903 C          -6.5519   -7.0421   79.7682 C.2       0      C_A    0.0000
   1904 C          -6.0362   -7.0637   81.2061 C.2       0      C_A    0.0000
   1905 C          -7.1269   -6.4665   82.0925 C.2       0      C_A    0.0000
   1906 C          -7.0436   -6.7653   83.5777 C.2       0      C_A    0.0000
   1907 C          -7.7943   -4.0005   82.6906 C.2       0      C_A    0.0000
   1908 C          -8.1476   -4.5478   84.0655 C.2       0      C_A    0.0000
   1909 C          -8.2330   -3.3780   85.0500 C.2       0      C_A    0.0000
   1910 C          -8.5442   -3.8898   86.4508 C.2       0      C_A    0.0000
   1911 C          -9.6238   -1.2670   85.5406 C.2       0      C_A    0.0000
   1912 C          -9.6067   -1.6634   87.0139 C.2       0      C_A    0.0000
   1913 C          -9.6613   -0.5016   87.9971 C.2       0      C_A    0.0000
   1914 C          -9.1140   -0.8424   89.3753 C.2       0      C_A    0.0000
   1915 C          -8.6431    1.7449   88.5979 C.2       0      C_A    0.0000
   1916 C          -9.4427    1.6204   89.8893 C.2       0      C_A    0.0000
   1917 C          -8.7393    2.4622   90.9495 C.2       0      C_A    0.0000
   1918 C          -9.4107    2.3999   92.3169 C.2       0      C_A    0.0000
   1919 C          -7.4908    4.4745   91.5291 C.2       0      C_A    0.0000
   1920 C          -8.0685    4.4953   92.9391 C.2       0      C_A    0.0000
   1921 C          -6.9629    4.8900   93.9128 C.2       0      C_A    0.0000
   1922 C          -7.4891    4.9297   95.3428 C.2       0      C_A    0.0000
   1923 C          -5.1011    6.3931   94.4710 C.2       0      C_A    0.0000
   1924 C          -5.6045    6.5303   95.9028 C.2       0      C_A    0.0000
   1925 C          -4.4302    6.7047   96.8588 C.2       0      C_A    0.0000
   1926 C          -4.9705    6.9221   98.2672 C.2       0      C_A    0.0000
   1927 C          -2.3309    7.8808   97.4014 C.2       0      C_A    0.0000
   1928 C          -2.8269    8.1920   98.8124 C.2       0      C_A    0.0000
   1929 C          -1.6549    8.2069   99.7897 C.2       0      C_A    0.0000
   1930 C           0.6681    8.8878  100.2969 C.2       0      C_A    0.0000
   1931 C           9.0626   -1.3076   64.0392 C.2       0      C_A    0.0000
   1932 C           9.6895   -0.9161   65.3769 C.2       0      C_A    0.0000
   1933 C           9.6720   -2.0571   66.3865 C.2       0      C_A    0.0000
   1934 C           9.7396   -1.6650   67.8570 C.2       0      C_A    0.0000
   1935 C           8.6491   -4.3014   67.0022 C.2       0      C_A    0.0000
   1936 C           8.3707   -3.7602   68.3977 C.2       0      C_A    0.0000
   1937 C           8.2525   -4.9218   69.3865 C.2       0      C_A    0.0000
   1938 C           7.9759   -4.3994   70.7919 C.2       0      C_A    0.0000
   1939 C           6.7538   -6.9246   69.9473 C.2       0      C_A    0.0000
   1940 C           6.5997   -6.3502   71.3511 C.2       0      C_A    0.0000
   1941 C           6.1655   -7.4245   72.3453 C.2       0      C_A    0.0000
   1942 C           6.0634   -6.8307   73.7460 C.2       0      C_A    0.0000
   1943 C           4.0495   -8.7670   72.9094 C.2       0      C_A    0.0000
   1944 C           4.0859   -8.1445   74.3017 C.2       0      C_A    0.0000
   1945 C           3.2766   -8.9629   75.3045 C.2       0      C_A    0.0000
   1946 C           3.3581   -8.3251   76.6879 C.2       0      C_A    0.0000
   1947 C           0.8529   -9.5686   75.8361 C.2       0      C_A    0.0000
   1948 C           1.0149   -8.9412   77.2191 C.2       0      C_A    0.0000
   1949 C           0.0577   -9.6251   78.1806 C.2       0      C_A    0.0000
   1950 C           0.3429   -9.4899   79.6614 C.2       0      C_A    0.0000
   1951 C          -2.4265   -8.9998   78.6399 C.2       0      C_A    0.0000
   1952 C          -2.1917   -9.4251   80.0872 C.2       0      C_A    0.0000
   1953 C          -3.2206   -8.8137   81.0387 C.2       0      C_A    0.0000
   1954 C          -2.9651   -9.3745   82.4359 C.2       0      C_A    0.0000
   1955 C          -5.6831   -8.4972   81.5745 C.2       0      C_A    0.0000
   1956 C          -5.4080   -8.7226   83.0543 C.2       0      C_A    0.0000
   1957 C          -5.8275   -7.5822   83.9680 C.2       0      C_A    0.0000
   1958 C          -5.9522   -8.0885   85.3965 C.2       0      C_A    0.0000
   1959 C          -7.0821   -5.5456   84.4951 C.2       0      C_A    0.0000
   1960 C          -7.3181   -6.0261   85.9243 C.2       0      C_A    0.0000
   1961 C          -7.4515   -4.8601   86.9005 C.2       0      C_A    0.0000
   1962 C          -7.7438   -5.4009   88.2990 C.2       0      C_A    0.0000
   1963 C          -8.6139   -2.7352   87.4450 C.2       0      C_A    0.0000
   1964 C          -8.9945   -3.3069   88.8127 C.2       0      C_A    0.0000
   1965 C          -9.3939   -2.2609   89.8467 C.2       0      C_A    0.0000
   1966 C          -8.7101   -2.4522   91.1993 C.2       0      C_A    0.0000
   1967 C          -9.6428    0.1849   90.3669 C.2       0      C_A    0.0000
   1968 C          -9.0659   -0.0471   91.7578 C.2       0      C_A    0.0000
   1969 C          -9.6645    0.9532   92.7415 C.2       0      C_A    0.0000
   1970 C          -9.1668    0.6843   94.1594 C.2       0      C_A    0.0000
   1971 C          -8.5329    3.1027   93.3467 C.2       0      C_A    0.0000
   1972 C          -9.1405    3.1223   94.7473 C.2       0      C_A    0.0000
   1973 C          -8.0543    3.5629   95.7236 C.2       0      C_A    0.0000
   1974 C          -8.6033    3.5925   97.1427 C.2       0      C_A    0.0000
   1975 C          -6.3556    5.2648   96.3065 C.2       0      C_A    0.0000
   1976 C          -6.9056    5.3842   97.7237 C.2       0      C_A    0.0000
   1977 C          -5.7824    5.7043   98.7053 C.2       0      C_A    0.0000
   1978 C          -6.3637    5.8837  100.1060 C.2       0      C_A    0.0000
   1979 C          -3.8319    7.1303   99.2602 C.2       0      C_A    0.0000
   1980 C          -4.4256    7.4314  100.6333 C.2       0      C_A    0.0000
   1981 C           9.1469   -0.3220   68.2608 C.2       0      C_A    0.0000
   1982 C           9.4372   -2.7710   68.8603 C.2       0      C_A    0.0000
   1983 C           8.9741   -2.2221   70.2075 C.2       0      C_A    0.0000
   1984 C           8.9962   -3.3539   71.2313 C.2       0      C_A    0.0000
   1985 C           8.5900   -2.8623   72.6147 C.2       0      C_A    0.0000
   1986 C           7.8287   -5.5552   71.7789 C.2       0      C_A    0.0000
   1987 C           7.5864   -5.0171   73.1842 C.2       0      C_A    0.0000
   1988 C           7.3600   -6.1540   74.1762 C.2       0      C_A    0.0000
   1989 C           7.1660   -5.5962   75.5816 C.2       0      C_A    0.0000
   1990 C           5.5130   -7.8428   74.7467 C.2       0      C_A    0.0000
   1991 C           5.4717   -7.2306   76.1431 C.2       0      C_A    0.0000
   1992 C           4.8078   -8.1702   77.1437 C.2       0      C_A    0.0000
   1993 C           4.8794   -7.5896   78.5564 C.2       0      C_A    0.0000
   1994 C           2.4641   -9.0575   77.6850 C.2       0      C_A    0.0000
   1995 C           2.6428   -8.4018   79.0450 C.2       0      C_A    0.0000
   1996 C           1.5415   -8.6418   80.0514 C.2       0      C_A    0.0000
   1997 C           1.9835   -8.9711   81.4660 C.2       0      C_A    0.0000
   1998 C          -0.8029   -8.9780   80.5243 C.2       0      C_A    0.0000
   1999 C          -0.4847   -9.3817   81.9612 C.2       0      C_A    0.0000
   2000 C          -1.5852   -8.9348   82.9127 C.2       0      C_A    0.0000
   2001 C          -1.2705   -9.4352   84.3200 C.2       0      C_A    0.0000
   2002 C          -3.9413   -8.7911   83.4401 C.2       0      C_A    0.0000
   2003 C          -3.7462   -9.3938   84.8249 C.2       0      C_A    0.0000
   2004 C          -4.8118   -8.9988   85.8417 C.2       0      C_A    0.0000
   2005 C          -4.2470   -8.6199   87.2044 C.2       0      C_A    0.0000
   2006 C          -6.1720   -6.9325   86.3673 C.2       0      C_A    0.0000
   2007 C          -6.4493   -7.4778   87.7629 C.2       0      C_A    0.0000
   2008 C          -6.6408   -6.3471   88.7668 C.2       0      C_A    0.0000
   2009 C          -6.9809   -6.9205   90.1400 C.2       0      C_A    0.0000
   2010 C          -7.9321   -4.2780   89.3161 C.2       0      C_A    0.0000
   2011 C          -8.3029   -4.8944   90.6639 C.2       0      C_A    0.0000
   2012 C          -8.8016   -3.8896   91.6948 C.2       0      C_A    0.0000
   2013 C          -8.1251   -4.0152   93.0570 C.2       0      C_A    0.0000
   2014 C          -9.3205   -1.4825   92.2089 C.2       0      C_A    0.0000
   2015 C          -8.7590   -1.6728   93.6151 C.2       0      C_A    0.0000
   2016 C          -9.5014   -0.7410   94.5713 C.2       0      C_A    0.0000
   2017 C          -9.0577   -0.9472   96.0129 C.2       0      C_A    0.0000
   2018 C          -9.7155    1.7519   95.0927 C.2       0      C_A    0.0000
   2019 C          -9.8353    1.4093   96.5688 C.2       0      C_A    0.0000
   2020 C          -8.9662    2.1745   97.5524 C.2       0      C_A    0.0000
   2021 C          -9.6387    2.1883   98.9221 C.2       0      C_A    0.0000
   2022 C          -7.5368    4.0569   98.1320 C.2       0      C_A    0.0000
   2023 C          -8.1224    4.1324   99.5394 C.2       0      C_A    0.0000
   2024 C          -7.0685    4.5995  100.5431 C.2       0      C_A    0.0000
   2025 C          -5.2612    6.2435  101.1015 C.2       0      C_A    0.0000
   2026 C           9.7089   -0.9700   70.6747 C.2       0      C_A    0.0000
   2027 C           9.1251   -0.5340   72.0168 C.2       0      C_A    0.0000
   2028 C           9.3704   -1.6285   73.0537 C.2       0      C_A    0.0000
   2029 C           8.8526   -1.2285   74.4310 C.2       0      C_A    0.0000
   2030 C           8.6535   -4.0164   73.6120 C.2       0      C_A    0.0000
   2031 C           8.3065   -3.5318   75.0140 C.2       0      C_A    0.0000
   2032 C           8.3098   -4.6870   76.0103 C.2       0      C_A    0.0000
   2033 C           7.9982   -4.1809   77.4143 C.2       0      C_A    0.0000
   2034 C           6.8380   -6.7067   76.5722 C.2       0      C_A    0.0000
   2035 C           6.7280   -6.1639   77.9936 C.2       0      C_A    0.0000
   2036 C           6.3223   -7.2844   78.9413 C.2       0      C_A    0.0000
   2037 C           6.5437   -7.0073   80.4209 C.2       0      C_A    0.0000
   2038 C           4.0896   -8.4656   79.5149 C.2       0      C_A    0.0000
   2039 C           4.3462   -8.1859   80.9855 C.2       0      C_A    0.0000
   2040 C           3.1152   -8.0385   81.8682 C.2       0      C_A    0.0000
   2041 C           3.5316   -8.2973   83.3126 C.2       0      C_A    0.0000
   2042 C           0.8086   -8.7034   82.4035 C.2       0      C_A    0.0000
   2043 C           1.1843   -9.0750   83.8318 C.2       0      C_A    0.0000
   2044 C           0.0306   -8.7936   84.7875 C.2       0      C_A    0.0000
   2045 C           0.4222   -9.2427   86.1913 C.2       0      C_A    0.0000
   2046 C          -2.3507   -9.0373   85.3199 C.2       0      C_A    0.0000
   2047 C          -2.0128   -9.6500   86.6758 C.2       0      C_A    0.0000
   2048 C          -3.1563   -9.5746   87.6715 C.3       0      C_A    0.0000
   2049 C          -2.7012   -9.1361   89.0576 C.2       0      C_A    0.0000
   2050 C          -5.3830   -8.4696   88.2137 C.2       0      C_A    0.0000
   2051 C          -4.8638   -8.1684   89.6152 C.2       0      C_A    0.0000
   2052 C          -6.0187   -8.0173   90.5914 C.2       0      C_A    0.0000
   2053 C          -5.4543   -7.7816   91.9845 C.2       0      C_A    0.0000
   2054 C          -7.1873   -5.8088   91.1647 C.2       0      C_A    0.0000
   2055 C          -7.5261   -6.4184   92.5174 C.2       0      C_A    0.0000
   2056 C          -8.0981   -5.4573   93.5481 C.2       0      C_A    0.0000
   2057 C          -7.4614   -5.5115   94.9327 C.2       0      C_A    0.0000
   2058 C          -8.8601   -3.1265   94.0586 C.2       0      C_A    0.0000
   2059 C          -8.3220   -3.2720   95.4819 C.2       0      C_A    0.0000
   2060 C          -9.1806   -2.4178   96.4043 C.2       0      C_A    0.0000
   2061 C          -8.7330   -2.5222   97.8487 C.2       0      C_A    0.0000
   2062 C          -9.8913   -0.0696   96.9427 C.2       0      C_A    0.0000
   2063 C          -9.5172   -0.2809   98.4169 C.2       0      C_A    0.0000
   2064 C         -10.1998    0.8024   99.2506 C.2       0      C_A    0.0000
   2065 C         -10.4334    0.5796  100.7359 C.2       0      C_A    0.0000
   2066 C          -8.6922    2.7773   99.9670 C.2       0      C_A    0.0000
   2067 C           9.3287    0.1469   74.8817 C.2       0      C_A    0.0000
   2068 C           9.1465   -2.3345   75.4386 C.2       0      C_A    0.0000
   2069 C           8.6813   -1.9205   76.8278 C.2       0      C_A    0.0000
   2070 C           8.9248   -3.0466   77.8279 C.2       0      C_A    0.0000
   2071 C           8.5603   -2.5884   79.2358 C.2       0      C_A    0.0000
   2072 C           7.9297   -5.3308   78.4140 C.2       0      C_A    0.0000
   2073 C           7.6416   -4.7894   79.8097 C.2       0      C_A    0.0000
   2074 C           7.5566   -5.9335   80.8113 C.2       0      C_A    0.0000
   2075 C           7.2445   -5.3316   82.1775 C.2       0      C_A    0.0000
   2076 C           5.3216   -7.0642   81.3233 C.2       0      C_A    0.0000
   2077 C           5.7594   -7.2812   82.7724 C.2       0      C_A    0.0000
   2078 C           4.5699   -7.2611   83.7260 C.2       0      C_A    0.0000
   2079 C           5.0327   -7.5372   85.1508 C.2       0      C_A    0.0000
   2080 C           2.3504   -8.1974   84.2696 C.2       0      C_A    0.0000
   2081 C           2.7907   -8.5523   85.6867 C.2       0      C_A    0.0000
   2082 C           1.6200   -8.4197   86.6536 C.2       0      C_A    0.0000
   2083 C           2.0665   -8.7965   88.0631 C.2       0      C_A    0.0000
   2084 C          -0.7136   -9.0447   87.1900 C.2       0      C_A    0.0000
   2085 C          -0.2568   -9.6094   88.5325 C.2       0      C_A    0.0000
   2086 C          -1.4116   -9.7973   89.5072 C.2       0      C_A    0.0000
   2087 C          -1.0752   -9.6982   90.9841 C.2       0      C_A    0.0000
   2088 C          -3.8950   -9.2776   89.9917 C.2       0      C_A    0.0000
   2089 C          -3.6094   -9.5100   91.4612 C.2       0      C_A    0.0000
   2090 C          -4.6523   -8.9941   92.4460 C.2       0      C_A    0.0000
   2091 C          -4.0703   -8.7018   93.8277 C.2       0      C_A    0.0000
   2092 C          -6.5773   -7.5144   92.9826 C.2       0      C_A    0.0000
   2093 C          -6.0213   -7.3300   94.3902 C.2       0      C_A    0.0000
   2094 C          -7.1512   -6.9437   95.3333 C.2       0      C_A    0.0000
   2095 C          -6.8247   -7.1071   96.8066 C.2       0      C_A    0.0000
   2096 C          -8.3512   -4.7393   95.8924 C.2       0      C_A    0.0000
   2097 C          -8.1135   -5.0139   97.3672 C.2       0      C_A    0.0000
   2098 C          -8.0808   -3.8131   98.2940 C.2       0      C_A    0.0000
   2099 C          -8.4223   -4.2448   99.7085 C.2       0      C_A    0.0000
   2100 C          -9.6676   -1.7583   98.7787 C.2       0      C_A    0.0000
   2101 C          -9.5176   -2.0872  100.2577 C.2       0      C_A    0.0000
   2102 C           9.2323   -0.5623   77.2454 C.2       0      C_A    0.0000
   2103 C           8.7487   -0.2857   78.6589 C.2       0      C_A    0.0000
   2104 C           9.3605   -1.3380   79.5687 C.2       0      C_A    0.0000
   2105 C           9.4942   -0.9831   81.0366 C.2       0      C_A    0.0000
   2106 C           8.6673   -3.7344   80.2278 C.2       0      C_A    0.0000
   2107 C           8.3723   -3.1972   81.6264 C.2       0      C_A    0.0000
   2108 C           8.3459   -4.3621   82.6108 C.2       0      C_A    0.0000
   2109 C           8.0914   -3.8066   84.0072 C.2       0      C_A    0.0000
   2110 C           6.9213   -6.3997   83.2164 C.2       0      C_A    0.0000
   2111 C           6.6788   -5.6867   84.5350 C.2       0      C_A    0.0000
   2112 C           5.8776   -6.3698   85.6162 C.2       0      C_A    0.0000
   2113 C           6.4998   -6.6291   86.9775 C.2       0      C_A    0.0000
   2114 C           3.8637   -7.5664   86.1270 C.2       0      C_A    0.0000
   2115 C           4.3538   -7.8494   87.5452 C.2       0      C_A    0.0000
   2116 C           3.1729   -7.8439   88.5123 C.2       0      C_A    0.0000
   2117 C           3.6445   -8.1794   89.9236 C.2       0      C_A    0.0000
   2118 C           0.8844   -8.7241   89.0279 C.2       0      C_A    0.0000
   2119 C           1.3324   -9.0741   90.4412 C.2       0      C_A    0.0000
   2120 C           0.1420   -8.8641   91.3656 C.2       0      C_A    0.0000
   2121 C           0.5220   -9.1380   92.8208 C.2       0      C_A    0.0000
   2122 C          -2.1914   -9.2006   91.8892 C.2       0      C_A    0.0000
   2123 C          -1.8547   -9.7462   93.2729 C.2       0      C_A    0.0000
   2124 C          -3.0522   -9.7644   94.2114 C.2       0      C_A    0.0000
   2125 C          -2.6854   -9.8471   95.6864 C.2       0      C_A    0.0000
   2126 C          -5.2289   -8.5615   94.8097 C.2       0      C_A    0.0000
   2127 C          -4.6967   -8.4025   96.2261 C.2       0      C_A    0.0000
   2128 C          -5.8514   -8.2002   97.2021 C.2       0      C_A    0.0000
   2129 C          -5.2199   -8.0451   98.5756 C.2       0      C_A    0.0000
   2130 C          -6.9282   -5.9050   97.7272 C.2       0      C_A    0.0000
   2131 C          -7.1235   -6.4056   99.1594 C.2       0      C_A    0.0000
   2132 C          -7.4435   -5.3133  100.1789 C.2       0      C_A    0.0000
   2133 C          -8.3461   -3.0029  100.5888 C.2       0      C_A    0.0000
   2134 C           9.4213   -2.1568   81.9980 C.2       0      C_A    0.0000
   2135 C           9.5351   -1.7811   83.4660 C.2       0      C_A    0.0000
   2136 C           9.2132   -2.8855   84.4633 C.2       0      C_A    0.0000
   2137 C           8.7894   -2.3138   85.8117 C.2       0      C_A    0.0000
   2138 C           7.9118   -4.9464   85.0048 C.2       0      C_A    0.0000
   2139 C           7.6612   -4.4545   86.4247 C.2       0      C_A    0.0000
   2140 C           7.5520   -5.6187   87.4027 C.3       0      C_A    0.0000
   2141 C           7.2785   -5.0613   88.7936 C.2       0      C_A    0.0000
   2142 C           5.3703   -6.7959   87.9909 C.2       0      C_A    0.0000
   2143 C           5.8899   -7.1080   89.3910 C.2       0      C_A    0.0000
   2144 C           4.7145   -7.1815   90.3665 C.2       0      C_A    0.0000
   2145 C           5.1591   -7.4757   91.7968 C.2       0      C_A    0.0000
   2146 C           2.4490   -8.1218   90.8721 C.2       0      C_A    0.0000
   2147 C           2.8722   -8.3809   92.3155 C.2       0      C_A    0.0000
   2148 C           1.6701   -8.2301   93.2447 C.2       0      C_A    0.0000
   2149 C           2.0718   -8.5280   94.6861 C.2       0      C_A    0.0000
   2150 C          -0.6698   -8.9184   93.7541 C.2       0      C_A    0.0000
   2151 C          -0.2990   -9.2434   95.1942 C.2       0      C_A    0.0000
   2152 C          -1.5014   -8.9772   96.0976 C.2       0      C_A    0.0000
   2153 C          -1.1277   -9.2769   97.5482 C.2       0      C_A    0.0000
   2154 C          -3.8986   -9.6553   96.5875 C.2       0      C_A    0.0000
   2155 C          -3.5402   -9.7934   98.0644 C.2       0      C_A    0.0000
   2156 C          -4.7278   -9.4374   98.9552 C.2       0      C_A    0.0000
   2157 C          -4.4098   -9.6396  100.4304 C.2       0      C_A    0.0000
   2158 C          -6.0018   -7.3170   99.6572 C.2       0      C_A    0.0000
   2159 C          -4.9819   -6.5932  100.5360 C.2       0      C_A    0.0000
   2160 C           9.0238   -0.4113   83.8948 C.2       0      C_A    0.0000
   2161 C           9.6867   -0.0317   85.2209 C.2       0      C_A    0.0000
   2162 C           9.6950   -1.1655   86.2379 C.2       0      C_A    0.0000
   2163 C           9.2848   -0.7330   87.6358 C.2       0      C_A    0.0000
   2164 C           8.7240   -3.4421   86.8372 C.2       0      C_A    0.0000
   2165 C           8.4610   -2.9386   88.2548 C.2       0      C_A    0.0000
   2166 C           8.4278   -4.1412   89.1840 C.2       0      C_A    0.0000
   2167 C           8.6314   -3.8726   90.6600 C.2       0      C_A    0.0000
   2168 C           6.9828   -6.1312   89.8368 C.2       0      C_A    0.0000
   2169 C           6.6465   -5.4935   91.1789 C.2       0      C_A    0.0000
   2170 C           6.3033   -6.5576   92.2061 C.2       0      C_A    0.0000
   2171 C           6.5031   -6.2730   93.6835 C.2       0      C_A    0.0000
   2172 C           3.9511   -7.3803   92.7243 C.2       0      C_A    0.0000
   2173 C           4.3695   -7.5859   94.1755 C.2       0      C_A    0.0000
   2174 C           3.1566   -7.5424   95.1033 C.2       0      C_A    0.0000
   2175 C           3.5927   -7.7786   96.5457 C.2       0      C_A    0.0000
   2176 C           0.8728   -8.3615   95.6178 C.2       0      C_A    0.0000
   2177 C           1.2732   -8.6640   97.0582 C.2       0      C_A    0.0000
   2178 C           0.0784   -8.4475   97.9831 C.2       0      C_A    0.0000
   2179 C           0.4670   -8.7908   99.4184 C.2       0      C_A    0.0000
   2180 C          -2.3107   -8.9823   98.4661 C.2       0      C_A    0.0000
   2181 C          -1.9561   -9.2913   99.9202 C.2       0      C_A    0.0000
   2182 C          -3.1256   -8.9211  100.8292 C.2       0      C_A    0.0000
   2183 C           9.5348   -1.9102   88.5743 C.2       0      C_A    0.0000
   2184 C           9.7582   -1.6303   90.0507 C.2       0      C_A    0.0000
   2185 C           8.9153   -2.4267   91.0359 C.2       0      C_A    0.0000
   2186 C           9.5481   -2.4004   92.4287 C.2       0      C_A    0.0000
   2187 C           7.5676   -4.3723   91.6242 C.2       0      C_A    0.0000
   2188 C           8.1624   -4.4773   93.0231 C.2       0      C_A    0.0000
   2189 C           7.0854   -4.9048   94.0080 C.2       0      C_A    0.0000
   2190 C           7.6104   -4.9182   95.4423 C.2       0      C_A    0.0000
   2191 C           5.2700   -6.4217   94.5631 C.2       0      C_A    0.0000
   2192 C           5.7296   -6.5273   96.0132 C.2       0      C_A    0.0000
   2193 C           4.5446   -6.6628   96.9613 C.2       0      C_A    0.0000
   2194 C           5.0667   -6.8942   98.3738 C.2       0      C_A    0.0000
   2195 C           2.3991   -7.7313   97.4948 C.2       0      C_A    0.0000
   2196 C           2.8509   -8.0467   98.9193 C.2       0      C_A    0.0000
   2197 C           1.6619   -7.9567   99.8732 C.2       0      C_A    0.0000
   2198 C          -0.7110   -8.5226  100.3512 C.2       0      C_A    0.0000
   2199 C           9.9236   -0.1735   90.4728 C.2       0      C_A    0.0000
   2200 C           9.3235    0.0324   91.8602 C.2       0      C_A    0.0000
   2201 C           9.8720   -0.9715   92.8663 C.2       0      C_A    0.0000
   2202 C           9.3357   -0.6946   94.2685 C.2       0      C_A    0.0000
   2203 C           8.6607   -3.0991   93.4551 C.2       0      C_A    0.0000
   2204 C           9.2621   -3.1191   94.8616 C.2       0      C_A    0.0000
   2205 C           8.1721   -3.5544   95.8344 C.2       0      C_A    0.0000
   2206 C           8.7225   -3.5878   97.2550 C.2       0      C_A    0.0000
   2207 C           6.4847   -5.2633   96.4121 C.2       0      C_A    0.0000
   2208 C           7.0356   -5.3922   97.8285 C.2       0      C_A    0.0000
   2209 C           5.9138   -5.7031   98.8147 C.2       0      C_A    0.0000
   2210 C           6.4974   -5.9135  100.2098 C.2       0      C_A    0.0000
   2211 C           3.9190   -7.0493   99.3661 C.2       0      C_A    0.0000
   2212 C           4.5007   -7.3954  100.7334 C.2       0      C_A    0.0000
   2213 C           9.8465   -1.7555   95.2269 C.2       0      C_A    0.0000
   2214 C           9.9278   -1.3895   96.7028 C.2       0      C_A    0.0000
   2215 C           9.0617   -2.1675   97.6771 C.2       0      C_A    0.0000
   2216 C           9.7168   -2.1501   99.0554 C.2       0      C_A    0.0000
   2217 C           7.6658   -4.0685   98.2462 C.2       0      C_A    0.0000
   2218 C           8.2633   -4.1586   99.6476 C.2       0      C_A    0.0000
   2219 C           7.2277   -4.6488  100.6592 C.2       0      C_A    0.0000
   2220 C           5.3936   -6.2541  101.2111 C.2       0      C_A    0.0000
   2221 C           9.9293    0.0928   97.0760 C.2       0      C_A    0.0000
   2222 C          10.1906   -0.7356   99.4077 C.2       0      C_A    0.0000
   2223 C          10.2952   -0.4970  100.9059 C.2       0      C_A    0.0000
   2224 C           8.8051   -2.7994  100.0945 C.2       0      C_A    0.0000
   2225 O         -10.8212    3.4154   55.6590 O.2       0      C_A    0.0000
   2226 O          -7.5223    8.4233   79.0990 O.2       0      C_A    0.0000
   2227 O          -8.8352    6.4722   24.4608 O.2       0      C_A    0.0000
   2228 O          -1.1517   10.3764   12.6593 O.2       0      C_A    0.0000
   2229 O          10.7184    2.8214   75.6291 O.2       0      C_A    0.0000
   2230 O           8.0580    7.1446   44.5039 O.2       0      C_A    0.0000
   2231 O          -3.6919  -10.8676   87.7571 O.2       0      C_A    0.0000
   2232 O           8.7744   -6.3051   87.4239 O.2       0      C_A    0.0000
   2233 O         -11.0195   -0.8406   38.0407 O.2       0      C_A    0.0000
   2234 O         -10.8413   -0.1715   17.5656 O.2       0      C_A    0.0000
   2235 O           1.1260  -11.1727   46.9560 O.2       0      C_A    0.0000
   2236 O          11.0913   -1.8445   16.5604 O.2       0      C_A    0.0000
   2237 O          11.1761    2.0038   86.7936 O.2       0      C_A    0.0000
   2238 O           0.0962  -11.3206   20.6372 O.2       0      C_A    0.0000
   2239 O           1.6217   11.0255   47.4889 O.2       0      C_A    0.0000
   2240 O           2.3327   10.8772   84.9940 O.2       0      C_A    0.0000
   2241 O          -8.3985   -7.3236   75.6053 O.2       0      C_A    0.0000
   2242 O           5.8301   -9.5033   65.0861 O.2       0      C_A    0.0000
   2243 O           0.0087   11.1312   65.0530 O.2       0      C_A    0.0000
   2244 O          10.1041   -4.6787   32.9519 O.2       0      C_A    0.0000
   2245 H           6.9715    0.9385    0.8670 H         0      C_A    0.0000
   2246 H           7.7101   -0.0959   -0.4295 H         0      C_A    0.0000
   2247 H           8.7104    6.5095   -0.5724 H         0      C_A    0.0000
   2248 H           9.4804    3.4036   -0.6402 H         0      C_A    0.0000
   2249 H           6.2251    6.9087   -0.5918 H         0      C_A    0.0000
   2250 H           2.7322    9.2978   -0.5822 H         0      C_A    0.0000
   2251 H           5.4643   10.3070   -0.2715 H         0      C_A    0.0000
   2252 H           6.0323   10.4235    1.4488 H         0      C_A    0.0000
   2253 H          -2.3125    8.9530   -1.6876 H         0      C_A    0.0000
   2254 H           0.2013    9.3466   -1.1400 H         0      C_A    0.0000
   2255 H          -4.2326    9.4370   -0.1244 H         0      C_A    0.0000
   2256 H          -7.6166    4.9495   -0.9221 H         0      C_A    0.0000
   2257 H          -6.0563    6.9117   -0.3647 H         0      C_A    0.0000
   2258 H          -8.7488    2.7320   -1.4415 H         0      C_A    0.0000
   2259 H          -6.6970   -0.9777    0.8716 H         0      C_A    0.0000
   2260 H          -7.4309    0.0665   -0.4194 H         0      C_A    0.0000
   2261 H         -10.8668    2.1215   -0.2701 H         0      C_A    0.0000
   2262 H          -8.2940   -5.5182   -1.2251 H         0      C_A    0.0000
   2263 H          -9.3320   -3.3606   -0.5966 H         0      C_A    0.0000
   2264 H          -6.7303   -7.3536   -0.6338 H         0      C_A    0.0000
   2265 H          -2.7321   -8.9545   -0.6252 H         0      C_A    0.0000
   2266 H          -5.3417  -10.4132   -0.1424 H         0      C_A    0.0000
   2267 H          -5.8263  -10.4962    1.6051 H         0      C_A    0.0000
   2268 H           2.0639   -7.6171   -1.7523 H         0      C_A    0.0000
   2269 H          -0.2258   -8.6053   -1.2292 H         0      C_A    0.0000
   2270 H           4.0562   -8.7565   -0.9149 H         0      C_A    0.0000
   2271 H           7.6552   -4.8044   -0.9600 H         0      C_A    0.0000
   2272 H           6.1250   -6.7683   -0.4549 H         0      C_A    0.0000
   2273 H           8.9745   -2.7065   -1.4454 H         0      C_A    0.0000
   2274 H          11.0900   -2.2125   -0.2162 H         0      C_A    0.0000
   2275 H          10.3804    2.6149  100.6797 H         0      C_A    0.0000
   2276 H           7.7172    5.9448  101.0694 H         0      C_A    0.0000
   2277 H           8.3208    3.4347  101.7432 H         0      C_A    0.0000
   2278 H           4.4361   10.9025  100.5290 H         0      C_A    0.0000
   2279 H           4.2610    5.5928   99.8713 H         0      C_A    0.0000
   2280 H           5.0381    6.1470  101.4264 H         0      C_A    0.0000
   2281 H           2.8673    9.4616  101.8405 H         0      C_A    0.0000
   2282 H          -2.0072    8.5530  100.7881 H         0      C_A    0.0000
   2283 H           0.3740    9.2313  101.3151 H         0      C_A    0.0000
   2284 H          -5.0316    8.3660  100.6036 H         0      C_A    0.0000
   2285 H          -7.5488    4.7588  101.5355 H         0      C_A    0.0000
   2286 H          -5.6885    6.4505  102.1087 H         0      C_A    0.0000
   2287 H         -11.2431   -0.1586  100.9254 H         0      C_A    0.0000
   2288 H          -9.5037    0.3091  101.2841 H         0      C_A    0.0000
   2289 H          -9.2383    2.9153  100.9279 H         0      C_A    0.0000
   2290 H         -10.4718   -2.5454  100.6080 H         0      C_A    0.0000
   2291 H          -7.8364   -5.7793  101.1115 H         0      C_A    0.0000
   2292 H          -8.3634   -3.2663  101.6706 H         0      C_A    0.0000
   2293 H          -4.3319  -10.7310  100.6410 H         0      C_A    0.0000
   2294 H          -4.5729   -5.6810  100.0464 H         0      C_A    0.0000
   2295 H          -5.3820   -6.3502  101.5448 H         0      C_A    0.0000
   2296 H          -2.8910   -9.1255  101.8984 H         0      C_A    0.0000
   2297 H           1.9752   -8.2884  100.8894 H         0      C_A    0.0000
   2298 H          -0.4368   -8.8199  101.3893 H         0      C_A    0.0000
   2299 H           5.0613   -8.3575  100.6901 H         0      C_A    0.0000
   2300 H           7.7255   -4.8347  101.6383 H         0      C_A    0.0000
   2301 H           5.8240   -6.4958  102.2093 H         0      C_A    0.0000
   2302 H          11.0715    0.2581  101.1573 H         0      C_A    0.0000
   2303 H           9.3172   -0.2449  101.3728 H         0      C_A    0.0000
   2304 H           9.3691   -2.9420  101.0446 H         0      C_A    0.0000
   2305 O         -37.5576   14.0473   55.4340 O.2       1      C_B    0.0000
   2306 C         -38.5596   14.4243   56.3540 C.3       1      C_B    0.0000
   2307 H         -39.4507   14.7573   55.7761 H         1      C_B    0.0000
   2308 H         -38.8472   13.5561   56.9878 H         1      C_B    0.0000
   2309 H         -38.2053   15.2695   56.9850 H         1      C_B    0.0000
   2310 O         -24.8706   31.4539   78.8351 O.2       2      C_C    0.0000
   2311 C         -25.5330   32.2950   79.7551 C.3       2      C_C    0.0000
   2312 H         -26.1232   33.0411   79.1772 H         2      C_C    0.0000
   2313 H         -26.2284   31.7009   80.3889 H         2      C_C    0.0000
   2314 H         -24.7925   32.8350   80.3861 H         2      C_C    0.0000
   2315 O         -32.8663   22.9718   24.4582 O.2       3      C_D    0.0000
   2316 C         -33.7450   23.5835   25.3782 C.3       3      C_D    0.0000
   2317 H         -34.5246   24.1286   24.8003 H         3      C_D    0.0000
   2318 H         -33.1929   24.3126   26.0120 H         3      C_D    0.0000
   2319 H         -34.2403   22.8124   26.0092 H         3      C_D    0.0000
   2320 O          -5.4649   39.7245   12.6100 O.2       4      C_E    0.0000
   2321 C          -5.6128   40.7848   13.5300 C.3       4      C_E    0.0000
   2322 H          -5.7423   41.7272   12.9521 H         4      C_E    0.0000
   2323 H          -4.7027   40.8749   14.1638 H         4      C_E    0.0000
   2324 H          -6.5152   40.6246   14.1610 H         4      C_E    0.0000
   2325 O          38.6524   10.6720   75.6337 O.2       5      C_F    0.0000
   2326 C          39.6849   10.9549   76.5537 C.3       5      C_F    0.0000
   2327 H          40.6019   11.2083   75.9758 H         5      C_F    0.0000
   2328 H          39.4082   11.8266   77.1875 H         5      C_F    0.0000
   2329 H          39.8942   10.0626   77.1847 H         5      C_F    0.0000
   2330 O          28.3296   28.3784   44.0087 O.2       6      C_G    0.0000
   2331 C          29.0845   29.1375   44.9287 C.3       6      C_G    0.0000
   2332 H          29.7567   29.8106   44.3508 H         6      C_G    0.0000
   2333 H          29.7067   28.4673   45.5625 H         6      C_G    0.0000
   2334 H          28.4111   29.7592   45.5597 H         6      C_G    0.0000
   2335 O         -15.3154  -37.0586   87.4426 O.2       7      C_H    0.0000
   2336 C         -15.7224  -38.0488   88.3626 C.3       7      C_H    0.0000
   2337 H         -16.0859  -38.9279   87.7847 H         7      C_H    0.0000
   2338 H         -16.5537  -37.6676   88.9964 H         7      C_H    0.0000
   2339 H         -14.8624  -38.3655   88.9936 H         7      C_H    0.0000
   2340 O          34.3754  -20.6453   86.7849 O.2       8      C_I    0.0000
   2341 C          35.2922  -21.1983   87.7049 C.3       8      C_I    0.0000
   2342 H          36.1078  -21.6879   87.1270 H         8      C_I    0.0000
   2343 H          35.7329  -20.3969   88.3387 H         8      C_I    0.0000
   2344 H          34.7900  -21.9650   88.3359 H         8      C_I    0.0000
   2345 O         -39.9232   -3.7466   37.9549 O.2       9      C_J    0.0000
   2346 C         -40.9889   -3.8487   38.8749 C.3       9      C_J    0.0000
   2347 H         -41.9361   -3.9373   38.2970 H         9      C_J    0.0000
   2348 H         -41.0397   -2.9355   39.5087 H         9      C_J    0.0000
   2349 H         -40.8677   -4.7571   39.5059 H         9      C_J    0.0000
   2350 O         -40.0750    1.3744   17.3553 O.2      10      C_K    0.0000
   2351 C         -41.1449    1.4132   18.2753 C.3      10      C_K    0.0000
   2352 H         -42.0957    1.4456   17.6974 H        10      C_K    0.0000
   2353 H         -41.1415    0.4986   18.9091 H        10      C_K    0.0000
   2354 H         -41.0778    2.3272   18.9063 H        10      C_K    0.0000
   2355 O           7.0854  -39.4676   46.3820 O.2      11      C_L    0.0000
   2356 C           7.2725  -40.5218   47.3020 C.3      11      C_L    0.0000
   2357 H           7.4408  -41.4581   46.7241 H        11      C_L    0.0000
   2358 H           8.1659  -40.3261   47.9358 H        11      C_L    0.0000
   2359 H           6.3648  -40.6484   47.9330 H        11      C_L    0.0000
   2360 O          39.6686   -5.8563   16.4872 O.2      12      C_M    0.0000
   2361 C          40.7275   -6.0148   17.4072 C.3      12      C_M    0.0000
   2362 H          41.6686   -6.1535   16.8293 H        12      C_M    0.0000
   2363 H          40.8266   -5.1056   18.0410 H        12      C_M    0.0000
   2364 H          40.5583   -6.9155   18.0382 H        12      C_M    0.0000
   2365 O          38.9399    9.5697   85.3511 O.2      13      C_N    0.0000
   2366 C          39.9801    9.8232   86.2711 C.3      13      C_N    0.0000
   2367 H          40.9039   10.0504   85.6932 H        13      C_N    0.0000
   2368 H          39.7283   10.7024   86.9049 H        13      C_N    0.0000
   2369 H          40.1639    8.9253   86.9021 H        13      C_N    0.0000
   2370 O           3.5419  -39.9419   19.9889 O.2      14      C_O    0.0000
   2371 C           3.6344  -41.0085   20.9089 C.3      14      C_O    0.0000
   2372 H           3.7187  -41.9560   20.3310 H        14      C_O    0.0000
   2373 H           4.5417  -40.8931   21.5427 H        14      C_O    0.0000
   2374 H           2.7191  -41.0537   21.5399 H        14      C_O    0.0000
   2375 O           7.8062   39.3314   47.2727 O.2      15      C_P    0.0000
   2376 C           8.0167   40.3811   48.1927 C.3      15      C_P    0.0000
   2377 H           8.2016   41.3143   47.6148 H        15      C_P    0.0000
   2378 H           7.1135   40.5250   48.8265 H        15      C_P    0.0000
   2379 H           8.9080   40.1678   48.8237 H        15      C_P    0.0000
   2380 O          10.4587   38.7106   84.7136 O.2      16      C_Q    0.0000
   2381 C          10.7360   39.7447   85.6336 C.3      16      C_Q    0.0000
   2382 H          10.9843   40.6630   85.0557 H        16      C_Q    0.0000
   2383 H          11.6092   39.4728   86.2674 H        16      C_Q    0.0000
   2384 H           9.8425   39.9491   86.2646 H        16      C_Q    0.0000
   2385 O         -31.6551  -24.6141   75.3981 O.2      17      C_R    0.0000
   2386 C         -32.4990  -25.2729   76.3181 C.3      17      C_R    0.0000
   2387 H         -33.2501  -25.8567   75.7402 H        17      C_R    0.0000
   2388 H         -33.0325  -24.5301   76.9519 H        17      C_R    0.0000
   2389 H         -31.9086  -25.9739   76.9491 H        17      C_R    0.0000
   2390 O          21.7482  -33.6885   65.0721 O.2      18      C_S    0.0000
   2391 C          22.3306  -34.5868   65.9921 C.3      18      C_S    0.0000
   2392 H          22.8464  -35.3862   65.4142 H        18      C_S    0.0000
   2393 H          21.5439  -35.0533   66.6259 H        18      C_S    0.0000
   2394 H          23.0806  -34.0601   66.6231 H        18      C_S    0.0000
   2395 O           2.3159   40.0317   64.8048 O.2      19      C_T    0.0000
   2396 C           2.3798   41.1004   65.7248 C.3      19      C_T    0.0000
   2397 H           2.4345   42.0501   65.1469 H        19      C_T    0.0000
   2398 H           1.4654   41.1185   66.3586 H        19      C_T    0.0000
   2399 H           3.2920   41.0118   66.3558 H        19      C_T    0.0000
   2400 O          36.7602  -16.0183   32.9677 O.2      20      C_U    0.0000
   2401 C          37.7408  -16.4479   33.8877 C.3      20      C_U    0.0000
   2402 H          38.6130  -16.8277   33.3098 H        20      C_U    0.0000
   2403 H          38.0741  -15.5962   34.5215 H        20      C_U    0.0000
   2404 H          37.3422  -17.2731   34.5187 H        20      C_U    0.0000
   2405 C         -12.0761    3.1480   56.8370 C.1      21      M_A    0.0000
   2406 O         -12.5048    2.6545   57.7181 O.2      21      M_A    0.0000
   2407 C         -12.6804    3.9556   55.9438 C.3      21      M_A    0.0000
   2408 O         -13.7797    4.3216   56.4784 O.3      21      M_A    0.0000
   2409 H         -12.8444    3.4458   55.1141 H        21      M_A    0.0000
   2410 H         -12.0961    4.7330   55.7717 H        21      M_A    0.0000
   2411 O         -14.6355    3.3844   56.4185 O.3      22      M_D    0.0000
   2412 C         -15.0821    3.2310   55.2232 C.3      22      M_D    0.0000
   2413 C         -16.2588    3.9197   55.0566 C.3      22      M_D    0.0000
   2414 H         -15.2158    2.2629   55.0796 H        22      M_D    0.0000
   2415 H         -14.4173    3.5226   54.5504 H        22      M_D    0.0000
   2416 H         -16.3959    4.1666   54.1120 H        22      M_D    0.0000
   2417 H         -17.0096    3.3386   55.3252 H        22      M_D    0.0000
   2418 O         -16.3078    5.0828   55.8468 O.3      23      M_D    0.0000
   2419 C         -17.4487    5.2113   56.4244 C.3      23      M_D    0.0000
   2420 C         -17.8775    6.5147   56.3589 C.3      23      M_D    0.0000
   2421 H         -17.3395    4.9219   57.3624 H        23      M_D    0.0000
   2422 H         -18.1245    4.6088   56.0244 H        23      M_D    0.0000
   2423 H         -17.1684    7.1374   56.6445 H        23      M_D    0.0000
   2424 H         -18.1041    6.7295   55.4230 H        23      M_D    0.0000
   2425 O         -19.0247    6.7346   57.1433 O.3      24      M_D    0.0000
   2426 C         -19.7973    5.7076   57.1449 C.3      24      M_D    0.0000
   2427 C         -21.0830    6.0717   56.8270 C.3      24      M_D    0.0000
   2428 H         -19.7560    5.3079   58.0472 H        24      M_D    0.0000
   2429 H         -19.4741    5.0130   56.5182 H        24      M_D    0.0000
   2430 H         -21.0926    6.8096   56.1731 H        24      M_D    0.0000
   2431 H         -21.5402    5.3011   56.4139 H        24      M_D    0.0000
   2432 O         -21.8208    6.4548   57.9622 O.3      25      M_D    0.0000
   2433 C         -23.0552    6.1125   57.8584 C.3      25      M_D    0.0000
   2434 C         -23.8436    7.2152   57.6364 C.3      25      M_D    0.0000
   2435 H         -23.3084    5.6605   58.6993 H        25      M_D    0.0000
   2436 H         -23.1851    5.4485   57.1359 H        25      M_D    0.0000
   2437 H         -23.4457    8.0236   58.0368 H        25      M_D    0.0000
   2438 H         -23.9133    7.3672   56.6640 H        25      M_D    0.0000
   2439 C         -25.1456    7.0456   58.1421 C.2      26      M_B    0.0000
   2440 O         -25.1211    6.4296   59.0502 O.2      26      M_B    0.0000
   2441 C         -26.2166    7.6067   57.5301 C.3      26      M_B    0.0000
   2442 C         -26.3337    7.1265   56.2490 C.3      26      M_B    0.0000
   2443 O         -27.2219    7.2352   58.2349 O.3      26      M_B    0.0000
   2444 H         -26.0997    8.5890   57.5420 H        26      M_B    0.0000
   2445 H         -25.5506    7.3633   55.6999 H        26      M_B    0.0000
   2446 H         -26.4233    6.1437   56.2475 H        26      M_B    0.0000
   2447 H         -27.1390    7.4874   55.8097 H        26      M_B    0.0000
   2448 C         -28.1126    8.1404   58.3002 C.2      27      M_B    0.0000
   2449 O         -27.6458    9.1180   58.4764 O.2      27      M_B    0.0000
   2450 C         -29.4273    7.8454   58.1544 C.3      27      M_B    0.0000
   2451 C         -29.7663    6.7875   58.9614 C.3      27      M_B    0.0000
   2452 O         -30.0398    8.9061   58.5357 O.3      27      M_B    0.0000
   2453 H         -29.5949    7.6447   57.2003 H        27      M_B    0.0000
   2454 H         -29.2743    5.9704   58.7140 H        27      M_B    0.0000
   2455 H         -29.5706    6.9886   59.9075 H        27      M_B    0.0000
   2456 H         -30.7315    6.5956   58.9039 H        27      M_B    0.0000
   2457 O         -31.2467    8.6648   58.8553 O.3      28      M_D    0.0000
   2458 C         -31.7080    7.6488   58.2177 C.3      28      M_D    0.0000
   2459 C         -33.0645    7.7686   58.0376 C.3      28      M_D    0.0000
   2460 H         -31.4915    6.8439   58.7476 H        28      M_D    0.0000
   2461 H         -31.2560    7.5364   57.3442 H        28      M_D    0.0000
   2462 H         -33.3127    7.6212   57.0948 H        28      M_D    0.0000
   2463 H         -33.5202    7.0796   58.5773 H        28      M_D    0.0000
   2464 O         -33.5440    9.0263   58.4473 O.3      29      M_D    0.0000
   2465 C         -33.5592    9.8641   57.4729 C.3      29      M_D    0.0000
   2466 C         -32.7749   10.9539   57.7626 C.3      29      M_D    0.0000
   2467 H         -34.4986   10.1330   57.3288 H        29      M_D    0.0000
   2468 H         -33.2587    9.4413   56.6299 H        29      M_D    0.0000
   2469 H         -31.8236   10.7019   57.8225 H        29      M_D    0.0000
   2470 H         -32.8636   11.6136   57.0342 H        29      M_D    0.0000
   2471 O         -33.1604   11.5798   58.9623 O.3      30      M_D    0.0000
   2472 C         -32.9318   10.8282   59.9794 C.3      30      M_D    0.0000
   2473 C         -33.8309   11.0910   60.9841 C.3      30      M_D    0.0000
   2474 H         -32.0071   11.0067   60.2771 H        30      M_D    0.0000
   2475 H         -32.9646    9.8700   59.7336 H        30      M_D    0.0000
   2476 H         -34.2592   10.2625   61.3041 H        30      M_D    0.0000
   2477 H         -33.3495   11.4917   61.7465 H        30      M_D    0.0000
   2478 O         -34.8286   11.9963   60.5783 O.3      31      M_D    0.0000
   2479 C         -34.7818   12.2114   59.3122 C.3      31      M_D    0.0000
   2480 C         -34.6729   13.5565   59.0559 C.3      31      M_D    0.0000
   2481 H         -35.6093   11.8425   58.9188 H        31      M_D    0.0000
   2482 H         -34.0317   11.7216   58.8913 H        31      M_D    0.0000
   2483 H         -34.9895   14.0913   59.8213 H        31      M_D    0.0000
   2484 H         -33.7225   13.7777   58.9101 H        31      M_D    0.0000
   2485 C         -35.3869   13.9355   57.9043 C.2      32      M_A    0.0000
   2486 O         -35.7643   14.9606   58.0059 O.2      32      M_A    0.0000
   2487 C         -35.5301   13.0813   56.8723 C.3      32      M_A    0.0000
   2488 O         -36.3838   13.6105   56.0852 O.2      32      M_A    0.0000
   2489 H         -35.8584   12.2166   57.2184 H        32      M_A    0.0000
   2490 H         -34.6565   12.9744   56.4244 H        32      M_A    0.0000
   2491 C          -8.2721    8.1422   80.2381 C.1      33      M_A    0.0000
   2492 O          -8.8131    8.0433   81.3659 O.2      33      M_A    0.0000
   2493 C          -8.4100    9.2690   79.1961 C.3      33      M_A    0.0000
   2494 O          -9.4196   10.1859   79.7157 O.3      33      M_A    0.0000
   2495 H          -8.7414    8.8184   78.2149 H        33      M_A    0.0000
   2496 H          -7.4126    9.7875   79.0869 H        33      M_A    0.0000
   2497 O         -10.4435    9.4540   80.4421 O.3      34      M_D    0.0000
   2498 C         -11.5848   10.3168   80.7790 C.3      34      M_D    0.0000
   2499 C         -11.1795   11.3611   81.8805 C.3      34      M_D    0.0000
   2500 H         -12.4186    9.6476   81.1437 H        34      M_D    0.0000
   2501 H         -11.9825   10.8497   79.8628 H        34      M_D    0.0000
   2502 H         -11.8984   11.3364   82.7489 H        34      M_D    0.0000
   2503 H         -10.1567   11.0956   82.2765 H        34      M_D    0.0000
   2504 O         -11.1110   12.8596   81.2981 O.3      35      M_D    0.0000
   2505 C         -12.1775   13.7031   81.8563 C.3      35      M_D    0.0000
   2506 C         -12.3710   14.9953   80.9842 C.3      35      M_D    0.0000
   2507 H         -11.8799   13.9694   82.9130 H        35      M_D    0.0000
   2508 H         -13.1534   13.1347   81.9346 H        35      M_D    0.0000
   2509 H         -11.4299   15.2481   80.4167 H        35      M_D    0.0000
   2510 H         -13.1858   14.8059   80.2267 H        35      M_D    0.0000
   2511 O         -12.8061   16.2652   81.8716 O.3      36      M_D    0.0000
   2512 C         -13.8916   17.0221   81.2319 C.3      36      M_D    0.0000
   2513 C         -13.8258   18.5361   81.6461 C.3      36      M_D    0.0000
   2514 H         -14.8673   16.5557   81.5586 H        36      M_D    0.0000
   2515 H         -13.8538   16.9233   80.1048 H        36      M_D    0.0000
   2516 H         -12.9465   19.0520   81.1641 H        36      M_D    0.0000
   2517 H         -14.7629   19.0534   81.2886 H        36      M_D    0.0000
   2518 O         -13.7349   18.7240   83.2416 O.3      37      M_D    0.0000
   2519 C         -14.6342   19.7880   83.7101 C.3      37      M_D    0.0000
   2520 C         -15.3338   19.3666   85.0522 C.3      37      M_D    0.0000
   2521 H         -15.3966   19.9692   82.8964 H        37      M_D    0.0000
   2522 H         -14.0791   20.7648   83.8488 H        37      M_D    0.0000
   2523 H         -15.5575   18.2615   85.0650 H        37      M_D    0.0000
   2524 H         -14.6354   19.5834   85.9117 H        37      M_D    0.0000
   2525 C         -16.6981   20.1815   85.3057 C.2      38      M_B    0.0000
   2526 O         -17.3901   19.6046   86.1799 O.2      38      M_B    0.0000
   2527 C         -17.0114   21.4868   84.5308 C.3      38      M_B    0.0000
   2528 C         -16.6128   21.3272   83.0203 C.3      38      M_B    0.0000
   2529 O         -18.4641   21.6500   84.6557 O.3      38      M_B    0.0000
   2530 H         -16.4469   22.3344   85.0238 H        38      M_B    0.0000
   2531 H         -15.5063   21.1506   82.8997 H        38      M_B    0.0000
   2532 H         -17.1598   20.4602   82.5480 H        38      M_B    0.0000
   2533 H         -16.8894   22.2478   82.4310 H        38      M_B    0.0000
   2534 C         -18.9971   22.5375   83.6342 C.2      39      M_B    0.0000
   2535 O         -19.7551   21.9014   82.8617 O.2      39      M_B    0.0000
   2536 C         -18.6230   24.0412   83.6000 C.3      39      M_B    0.0000
   2537 C         -17.3845   24.2686   82.6615 C.3      39      M_B    0.0000
   2538 O         -19.8077   24.7032   83.0426 O.3      39      M_B    0.0000
   2539 H         -18.4105   24.3767   84.6595 H        39      M_B    0.0000
   2540 H         -16.4714   23.7284   83.0416 H        39      M_B    0.0000
   2541 H         -17.5984   23.9026   81.6155 H        39      M_B    0.0000
   2542 H         -17.1369   25.3654   82.5796 H        39      M_B    0.0000
   2543 O         -19.4560   25.6394   81.9866 O.3      40      M_D    0.0000
   2544 C         -18.4432   26.6041   82.4383 C.3      40      M_D    0.0000
   2545 C         -19.1294   27.8616   83.0833 C.3      40      M_D    0.0000
   2546 H         -17.8290   26.8968   81.5365 H        40      M_D    0.0000
   2547 H         -17.7235   26.1316   83.1733 H        40      M_D    0.0000
   2548 H         -19.3119   27.7054   84.1850 H        40      M_D    0.0000
   2549 H         -18.4413   28.7493   82.9738 H        40      M_D    0.0000
   2550 O         -20.5235   28.2250   82.3665 O.3      41      M_D    0.0000
   2551 C         -20.9969   29.5607   82.7566 C.3      41      M_D    0.0000
   2552 C         -22.3123   29.4517   83.6086 C.3      41      M_D    0.0000
   2553 H         -21.1774   30.1461   81.8075 H        41      M_D    0.0000
   2554 H         -20.2037   30.1265   83.3331 H        41      M_D    0.0000
   2555 H         -22.8072   30.4584   83.7238 H        41      M_D    0.0000
   2556 H         -23.0386   28.7736   83.0737 H        41      M_D    0.0000
   2557 O         -22.0389   28.8311   85.0679 O.3      42      M_D    0.0000
   2558 C         -22.3232   29.8071   86.1295 C.3      42      M_D    0.0000
   2559 C         -23.0046   29.1026   87.3573 C.3      42      M_D    0.0000
   2560 H         -23.0003   30.5973   85.6900 H        42      M_D    0.0000
   2561 H         -21.3819   30.3427   86.4593 H        42      M_D    0.0000
   2562 H         -22.2471   28.5424   87.9770 H        42      M_D    0.0000
   2563 H         -23.4705   29.8901   88.0177 H        42      M_D    0.0000
   2564 O         -24.1669   28.0862   86.9038 O.3      43      M_D    0.0000
   2565 C         -24.7183   28.4508   85.5911 C.3      43      M_D    0.0000
   2566 C         -26.1881   28.9853   85.7403 C.3      43      M_D    0.0000
   2567 H         -24.6883   27.5261   84.9429 H        43      M_D    0.0000
   2568 H         -24.0724   29.2230   85.0732 H        43      M_D    0.0000
   2569 H         -26.8192   28.2763   86.3491 H        43      M_D    0.0000
   2570 H         -26.1636   29.9736   86.2844 H        43      M_D    0.0000
   2571 C         -26.8936   29.2233   84.3137 C.2      44      M_A    0.0000
   2572 O         -27.9357   28.5311   84.2175 O.2      44      M_A    0.0000
   2573 C         -26.2802   30.1936   83.2856 C.3      44      M_A    0.0000
   2574 O         -26.7930   29.7862   81.9813 O.3      44      M_A    0.0000
   2575 H         -25.1553   30.1003   83.3236 H        44      M_A    0.0000
   2576 H         -26.6078   31.2448   83.5372 H        44      M_A    0.0000
   2577 C         -25.7023   29.6302   81.0339 C.2      45      M_B    0.0000
   2578 O         -25.7642   28.5028   80.4853 O.2      45      M_B    0.0000
   2579 C         -24.6679   30.7614   80.8045 C.3      45      M_B    0.0000
   2580 C         -23.5511   30.7039   81.9070 C.3      45      M_B    0.0000
   2581 O         -24.0922   30.4728   79.4863 O.2      45      M_B    0.0000
   2582 H         -25.2171   31.7506   80.8185 H        45      M_B    0.0000
   2583 H         -23.9758   30.8735   82.9370 H        45      M_B    0.0000
   2584 H         -23.0312   29.7021   81.9028 H        45      M_B    0.0000
   2585 H         -22.7588   31.4838   81.7193 H        45      M_B    0.0000
   2586 C         -10.3507    5.5171   25.8612 C.1      46      M_A    0.0000
   2587 O         -10.9415    5.3129   26.8274 O.2      46      M_A    0.0000
   2588 C         -10.5713    6.5113   24.8813 C.3      46      M_A    0.0000
   2589 O         -11.6344    7.2137   25.2915 O.3      46      M_A    0.0000
   2590 H         -10.7613    6.0491   23.9739 H        46      M_A    0.0000
   2591 H          -9.7306    7.1137   24.8221 H        46      M_A    0.0000
   2592 O         -11.7798    8.3125   24.5513 O.3      47      M_D    0.0000
   2593 C         -11.9967    9.3993   25.3188 C.3      47      M_D    0.0000
   2594 C         -13.3879    9.7729   25.2838 C.3      47      M_D    0.0000
   2595 H         -11.3987   10.1621   24.9526 H        47      M_D    0.0000
   2596 H         -11.6940    9.2363   26.2986 H        47      M_D    0.0000
   2597 H         -13.7698    9.7008   24.3253 H        47      M_D    0.0000
   2598 H         -13.9244    9.1227   25.8843 H        47      M_D    0.0000
   2599 O         -13.6080   11.1425   25.7881 O.3      48      M_D    0.0000
   2600 C         -14.7770   11.2419   26.4521 C.3      48      M_D    0.0000
   2601 C         -15.6413   12.2011   25.8125 C.3      48      M_D    0.0000
   2602 H         -14.5586   11.5293   27.4233 H        48      M_D    0.0000
   2603 H         -15.2520   10.3211   26.5204 H        48      M_D    0.0000
   2604 H         -15.3226   13.1686   25.9917 H        48      M_D    0.0000
   2605 H         -15.6135   12.0469   24.7894 H        48      M_D    0.0000
   2606 O         -17.0433   12.0664   26.2538 O.3      49      M_D    0.0000
   2607 C         -17.8638   12.8635   25.5405 C.3      49      M_D    0.0000
   2608 C         -18.4722   13.8537   26.3923 C.3      49      M_D    0.0000
   2609 H         -18.5824   12.2579   25.1042 H        49      M_D    0.0000
   2610 H         -17.3578   13.3244   24.7598 H        49      M_D    0.0000
   2611 H         -18.8050   13.4322   27.2762 H        49      M_D    0.0000
   2612 H         -17.7637   14.5686   26.6337 H        49      M_D    0.0000
   2613 O         -19.6001   14.5381   25.7305 O.3      50      M_D    0.0000
   2614 C         -19.6791   15.8315   26.1024 C.3      50      M_D    0.0000
   2615 C         -20.9514   16.1020   26.7225 C.3      50      M_D    0.0000
   2616 H         -19.5520   16.4075   25.2506 H        50      M_D    0.0000
   2617 H         -18.9053   16.0874   26.7456 H        50      M_D    0.0000
   2618 H         -21.7338   15.8297   26.1033 H        50      M_D    0.0000
   2619 H         -21.0277   15.5406   27.5887 H        50      M_D    0.0000
   2620 C         -21.0995   17.5240   27.0888 C.2      51      M_B    0.0000
   2621 O         -20.0640   18.0056   27.2356 O.2      51      M_B    0.0000
   2622 C         -22.3821   18.1246   27.2118 C.3      51      M_B    0.0000
   2623 C         -22.9876   17.7481   28.4633 C.3      51      M_B    0.0000
   2624 O         -22.1389   19.4480   27.1941 O.3      51      M_B    0.0000
   2625 H         -22.9589   17.8256   26.4026 H        51      M_B    0.0000
   2626 H         -23.1427   16.7277   28.5190 H        51      M_B    0.0000
   2627 H         -22.3906   18.0267   29.2618 H        51      M_B    0.0000
   2628 H         -23.8982   18.2213   28.5906 H        51      M_B    0.0000
   2629 C         -23.1798   20.1362   26.7225 C.2      52      M_B    0.0000
   2630 O         -22.8858   20.6863   25.7547 O.2      52      M_B    0.0000
   2631 C         -24.4355   20.1237   27.3889 C.3      52      M_B    0.0000
   2632 C         -24.2400   20.1692   28.8152 C.3      52      M_B    0.0000
   2633 O         -25.0519   21.2439   26.9695 O.3      52      M_B    0.0000
   2634 H         -24.9472   19.2683   27.1001 H        52      M_B    0.0000
   2635 H         -23.7271   19.3389   29.1555 H        52      M_B    0.0000
   2636 H         -23.7049   21.0122   29.0887 H        52      M_B    0.0000
   2637 H         -25.1461   20.2156   29.3113 H        52      M_B    0.0000
   2638 O         -26.3039   21.3195   27.4238 O.3      53      M_D    0.0000
   2639 C         -27.0614   20.3086   26.9532 C.3      53      M_D    0.0000
   2640 C         -28.4613   20.6043   27.1242 C.3      53      M_D    0.0000
   2641 H         -26.7967   19.4535   27.4751 H        53      M_D    0.0000
   2642 H         -26.8553   20.1157   25.9540 H        53      M_D    0.0000
   2643 H         -28.7562   21.3823   26.5098 H        53      M_D    0.0000
   2644 H         -29.0144   19.7702   26.8604 H        53      M_D    0.0000
   2645 O         -28.7905   20.9435   28.5224 O.3      54      M_D    0.0000
   2646 C         -28.9160   22.2752   28.6906 C.3      54      M_D    0.0000
   2647 C         -27.6620   22.8526   29.1034 C.3      54      M_D    0.0000
   2648 H         -29.6488   22.4297   29.4066 H        54      M_D    0.0000
   2649 H         -29.2541   22.7352   27.8233 H        54      M_D    0.0000
   2650 H         -27.6084   22.9316   30.1332 H        54      M_D    0.0000
   2651 H         -26.8912   22.2337   28.7964 H        54      M_D    0.0000
   2652 O         -27.4402   24.1839   28.5061 O.3      55      M_D    0.0000
   2653 C         -27.9443   24.2548   27.2577 C.3      55      M_D    0.0000
   2654 C         -26.9035   24.0579   26.2808 C.3      55      M_D    0.0000
   2655 H         -28.3803   25.1887   27.1518 H        55      M_D    0.0000
   2656 H         -28.7037   23.5608   27.1172 H        55      M_D    0.0000
   2657 H         -26.5180   24.9620   25.9587 H        55      M_D    0.0000
   2658 H         -26.1306   23.5259   26.7176 H        55      M_D    0.0000
   2659 O         -27.3773   23.2924   25.1112 O.3      56      M_D    0.0000
   2660 C         -27.7357   24.1083   24.0997 C.3      56      M_D    0.0000
   2661 C         -29.1459   24.3982   24.1600 C.3      56      M_D    0.0000
   2662 H         -27.4933   23.6289   23.2137 H        56      M_D    0.0000
   2663 H         -27.1876   24.9901   24.1135 H        56      M_D    0.0000
   2664 H         -29.3358   25.1995   24.7858 H        56      M_D    0.0000
   2665 H         -29.4756   24.6555   23.2132 H        56      M_D    0.0000
   2666 C         -29.9330   23.2353   24.6142 C.2      57      M_A    0.0000
   2667 O         -29.3763   22.2554   24.3810 O.2      57      M_A    0.0000
   2668 C         -31.1881   23.4139   25.2391 C.3      57      M_A    0.0000
   2669 O         -31.8410   22.2526   25.1094 O.2      57      M_A    0.0000
   2670 H         -31.6946   24.1787   24.7577 H        57      M_A    0.0000
   2671 H         -31.0340   23.6420   26.2378 H        57      M_A    0.0000
   2672 C          -2.5524    9.8147   14.0130 C.1      58      M_A    0.0000
   2673 O          -2.7286   10.2581   15.1358 O.2      58      M_A    0.0000
   2674 C          -2.3659   10.5608   12.7272 C.3      58      M_A    0.0000
   2675 O          -3.4766   11.4363   12.6101 O.3      58      M_A    0.0000
   2676 H          -2.3464    9.8395   11.8993 H        58      M_A    0.0000
   2677 H          -1.4254   11.1255   12.7792 H        58      M_A    0.0000
   2678 O          -3.5933   11.9101   11.2842 O.3      59      M_D    0.0000
   2679 C          -2.3214   12.2782   10.7464 C.3      59      M_D    0.0000
   2680 C          -1.9575   13.7031   11.1594 C.3      59      M_D    0.0000
   2681 H          -2.3887   12.1908    9.6535 H        59      M_D    0.0000
   2682 H          -1.5343   11.5777   11.0646 H        59      M_D    0.0000
   2683 H          -1.0043   13.7271   11.7006 H        59      M_D    0.0000
   2684 H          -1.8419   14.3158   10.2565 H        59      M_D    0.0000
   2685 O          -3.0656   14.3598   12.0476 O.3      60      M_D    0.0000
   2686 C          -3.0054   15.7865   11.9894 C.3      60      M_D    0.0000
   2687 C          -2.4069   16.3503   13.2767 C.3      60      M_D    0.0000
   2688 H          -4.0299   16.1530   11.8388 H        60      M_D    0.0000
   2689 H          -2.4242   16.1274   11.1190 H        60      M_D    0.0000
   2690 H          -3.0990   16.2337   14.1191 H        60      M_D    0.0000
   2691 H          -1.4937   15.7918   13.5178 H        60      M_D    0.0000
   2692 O          -2.0241   17.8608   13.1358 O.3      61      M_D    0.0000
   2693 C          -0.8499   18.1751   13.8874 C.3      61      M_D    0.0000
   2694 C          -0.9028   19.6184   14.3848 C.3      61      M_D    0.0000
   2695 H           0.0145   18.0181   13.2280 H        61      M_D    0.0000
   2696 H          -0.7209   17.4854   14.7355 H        61      M_D    0.0000
   2697 H          -1.7070   19.7552   15.1174 H        61      M_D    0.0000
   2698 H           0.0448   19.8568   14.8839 H        61      M_D    0.0000
   2699 O          -1.0997   20.6377   13.2142 O.3      62      M_D    0.0000
   2700 C          -0.4281   21.8716   13.4765 C.3      62      M_D    0.0000
   2701 C          -1.4165   23.0359   13.4485 C.3      62      M_D    0.0000
   2702 H           0.3461   21.9947   12.7071 H        62      M_D    0.0000
   2703 H           0.0984   21.8433   14.4428 H        62      M_D    0.0000
   2704 H          -2.2169   22.8581   12.7205 H        62      M_D    0.0000
   2705 H          -1.8824   23.1298   14.4375 H        62      M_D    0.0000
   2706 C          -0.7162   24.3949   13.1156 C.2      63      M_B    0.0000
   2707 O           0.3964   24.1929   12.6559 O.2      63      M_B    0.0000
   2708 C          -1.4075   25.7115   13.3597 C.3      63      M_B    0.0000
   2709 C          -2.1089   25.6931   14.7159 C.3      63      M_B    0.0000
   2710 O          -0.3546   26.6739   13.3639 O.3      63      M_B    0.0000
   2711 H          -2.1184   25.8838   12.5379 H        63      M_B    0.0000
   2712 H          -2.8918   24.9275   14.7547 H        63      M_B    0.0000
   2713 H          -1.3945   25.4915   15.5242 H        63      M_B    0.0000
   2714 H          -2.5681   26.6646   14.9328 H        63      M_B    0.0000
   2715 C          -0.7462   27.8773   13.9950 C.2      64      M_B    0.0000
   2716 O          -0.4320   27.8550   15.1743 O.2      64      M_B    0.0000
   2717 C          -1.4414   28.9725   13.2280 C.3      64      M_B    0.0000
   2718 C          -2.9070   28.6077   13.0034 C.3      64      M_B    0.0000
   2719 O          -1.3440   30.1185   14.0719 O.3      64      M_B    0.0000
   2720 H          -0.9090   29.1166   12.2762 H        64      M_B    0.0000
   2721 H          -3.0085   27.7009   12.3967 H        64      M_B    0.0000
   2722 H          -3.4199   28.4379   13.9587 H        64      M_B    0.0000
   2723 H          -3.4401   29.4207   12.4968 H        64      M_B    0.0000
   2724 O          -2.5865   30.7811   14.2023 O.3      65      M_D    0.0000
   2725 C          -3.1469   31.0977   12.9264 C.3      65      M_D    0.0000
   2726 C          -2.7344   32.5036   12.4942 C.3      65      M_D    0.0000
   2727 H          -4.2387   31.0193   13.0181 H        65      M_D    0.0000
   2728 H          -2.8472   30.3626   12.1639 H        65      M_D    0.0000
   2729 H          -1.8873   32.4712   11.7988 H        65      M_D    0.0000
   2730 H          -3.5756   32.9752   11.9708 H        65      M_D    0.0000
   2731 O          -2.3589   33.4082   13.7144 O.3      66      M_D    0.0000
   2732 C          -2.7400   34.7679   13.4943 C.3      66      M_D    0.0000
   2733 C          -1.5095   35.6319   13.2244 C.3      66      M_D    0.0000
   2734 H          -3.2711   35.1101   14.3928 H        66      M_D    0.0000
   2735 H          -3.4545   34.8536   12.6614 H        66      M_D    0.0000
   2736 H          -0.7005   35.3989   13.9268 H        66      M_D    0.0000
   2737 H          -1.1418   35.4197   12.2126 H        66      M_D    0.0000
   2738 O          -1.8336   37.1603   13.3078 O.3      67      M_D    0.0000
   2739 C          -0.6615   37.9291   13.5865 C.3      67      M_D    0.0000
   2740 C          -0.3288   37.8772   15.0765 C.3      67      M_D    0.0000
   2741 H          -0.8600   38.9600   13.2638 H        67      M_D    0.0000
   2742 H           0.1971   37.5794   12.9931 H        67      M_D    0.0000
   2743 H          -0.3315   36.8452   15.4468 H        67      M_D    0.0000
   2744 H           0.6795   38.2820   15.2293 H        67      M_D    0.0000
   2745 O          -1.3240   38.7291   15.9319 O.3      68      M_D    0.0000
   2746 C          -2.4824   37.9740   16.2930 C.3      68      M_D    0.0000
   2747 C          -3.6498   38.9052   16.6147 C.3      68      M_D    0.0000
   2748 H          -2.2168   37.3610   17.1648 H        68      M_D    0.0000
   2749 H          -2.7663   37.2705   15.4954 H        68      M_D    0.0000
   2750 H          -4.2694   38.4985   17.4227 H        68      M_D    0.0000
   2751 H          -3.2514   39.8692   16.9552 H        68      M_D    0.0000
   2752 C          -4.5520   39.1720   15.3645 C.2      69      M_A    0.0000
   2753 O          -4.6557   40.3702   15.1598 O.2      69      M_A    0.0000
   2754 C          -5.1538   38.0330   14.5993 C.3      69      M_A    0.0000
   2755 O          -5.2963   38.4835   13.2612 O.2      69      M_A    0.0000
   2756 H          -6.1311   37.7900   15.0373 H        69      M_A    0.0000
   2757 H          -4.4737   37.1724   14.6528 H        69      M_A    0.0000
   2758 C          10.0131    2.0886   77.0367 C.1      70      M_A    0.0000
   2759 O          10.2752    3.2178   76.4710 O.2      70      M_A    0.0000
   2760 C          10.9952    1.1112   77.8046 C.3      70      M_A    0.0000
   2761 O          12.1909    1.9320   78.1886 O.3      70      M_A    0.0000
   2762 H          11.2976    0.2475   77.0899 H        70      M_A    0.0000
   2763 H          10.4540    0.7014   78.7465 H        70      M_A    0.0000
   2764 O          12.7909    2.5755   76.9814 O.3      71      M_D    0.0000
   2765 C          13.2089    1.5470   75.9566 C.3      71      M_D    0.0000
   2766 C          14.8102    1.5738   75.7480 C.3      71      M_D    0.0000
   2767 H          12.6567    1.7984   74.9664 H        71      M_D    0.0000
   2768 H          12.8615    0.4792   76.2625 H        71      M_D    0.0000
   2769 H          15.3069    0.6292   76.2005 H        71      M_D    0.0000
   2770 H          15.0404    1.5807   74.6111 H        71      M_D    0.0000
   2771 O          15.5023    2.9199   76.4154 O.3      72      M_D    0.0000
   2772 C          16.6789    3.3998   75.5979 C.3      72      M_D    0.0000
   2773 C          17.9394    3.7221   76.5547 C.3      72      M_D    0.0000
   2774 H          16.3390    4.3505   75.0242 H        72      M_D    0.0000
   2775 H          16.9783    2.6192   74.7884 H        72      M_D    0.0000
   2776 H          17.8757    3.1245   77.5460 H        72      M_D    0.0000
   2777 H          18.9135    3.4004   76.0131 H        72      M_D    0.0000
   2778 O          18.0600    5.3347   76.9034 O.3      73      M_D    0.0000
   2779 C          19.4863    5.8200   76.7892 C.3      73      M_D    0.0000
   2780 C          20.1974    5.8337   78.2392 C.3      73      M_D    0.0000
   2781 H          19.4550    6.8868   76.3316 H        73      M_D    0.0000
   2782 H          20.0985    5.1642   76.0478 H        73      M_D    0.0000
   2783 H          19.6567    6.5595   78.9635 H        73      M_D    0.0000
   2784 H          20.1356    4.7698   78.6976 H        73      M_D    0.0000
   2785 O          21.7944    6.2550   78.1453 O.3      74      M_D    0.0000
   2786 C          22.5155    5.4567   77.0843 C.3      74      M_D    0.0000
   2787 C          24.0016    5.0665   77.5816 C.3      74      M_D    0.0000
   2788 H          22.5565    6.1103   76.1252 H        74      M_D    0.0000
   2789 H          21.9219    4.4968   76.8004 H        74      M_D    0.0000
   2790 H          23.9642    4.3024   78.4525 H        74      M_D    0.0000
   2791 H          24.5729    4.5692   76.7029 H        74      M_D    0.0000
   2792 C          24.8649    6.3927   78.0638 C.2      75      M_B    0.0000
   2793 O          24.0693    7.2950   78.5311 O.2      75      M_B    0.0000
   2794 C          26.4520    6.4394   77.9313 C.3      75      M_B    0.0000
   2795 C          26.8790    6.4562   76.3745 C.3      75      M_B    0.0000
   2796 O          26.8496    7.7350   78.5932 O.3      75      M_B    0.0000
   2797 H          26.8901    5.5157   78.4861 H        75      M_B    0.0000
   2798 H          26.5397    5.4922   75.8289 H        75      M_B    0.0000
   2799 H          26.4106    7.3649   75.8257 H        75      M_B    0.0000
   2800 H          28.0285    6.5516   76.2612 H        75      M_B    0.0000
   2801 C          28.3341    7.8611   78.7183 C.2      76      M_B    0.0000
   2802 O          28.6314    8.7771   79.5774 O.2      76      M_B    0.0000
   2803 C          29.3171    6.9390   77.8685 C.3      76      M_B    0.0000
   2804 C          28.9133    6.9887   76.3063 C.3      76      M_B    0.0000
   2805 O          30.6808    7.5499   78.0725 O.3      76      M_B    0.0000
   2806 H          29.2576    5.8574   78.2924 H        76      M_B    0.0000
   2807 H          27.8475    6.5714   76.1278 H        76      M_B    0.0000
   2808 H          28.9466    8.0765   75.9037 H        76      M_B    0.0000
   2809 H          29.6565    6.3711   75.6664 H        76      M_B    0.0000
   2810 O          31.2579    7.1868   79.4031 O.3      77      M_D    0.0000
   2811 C          32.3371    8.1580   79.8215 C.3      77      M_D    0.0000
   2812 C          33.7962    7.5845   79.4339 C.3      77      M_D    0.0000
   2813 H          32.2419    8.3104   80.9688 H        77      M_D    0.0000
   2814 H          32.1753    9.2043   79.3384 H        77      M_D    0.0000
   2815 H          33.7864    6.4274   79.3655 H        77      M_D    0.0000
   2816 H          34.0958    7.9950   78.3910 H        77      M_D    0.0000
   2817 O          34.9563    8.0514   80.5167 O.3      78      M_D    0.0000
   2818 C          36.1273    8.7084   79.8238 C.3      78      M_D    0.0000
   2819 C          37.1961    9.2485   80.9074 C.3      78      M_D    0.0000
   2820 H          35.7072    9.5815   79.1836 H        78      M_D    0.0000
   2821 H          36.6437    7.9771   79.0803 H        78      M_D    0.0000
   2822 H          37.9631    9.9660   80.4168 H        78      M_D    0.0000
   2823 H          36.6313    9.8454   81.7262 H        78      M_D    0.0000
   2824 O          38.0096    8.0134   81.6484 O.3      79      M_D    0.0000
   2825 C          39.4417    7.9312   81.1737 C.3      79      M_D    0.0000
   2826 C          39.5998    6.7857   80.0464 C.3      79      M_D    0.0000
   2827 H          40.1020    7.6968   82.0998 H        79      M_D    0.0000
   2828 H          39.8100    8.9550   80.7606 H        79      M_D    0.0000
   2829 H          40.6765    6.3564   80.0341 H        79      M_D    0.0000
   2830 H          38.8769    5.9129   80.2943 H        79      M_D    0.0000
   2831 O          39.2240    7.3436   78.5351 O.3      80      M_D    0.0000
   2832 C          39.9932    6.6040   77.4654 C.3      80      M_D    0.0000
   2833 C          40.2151    7.5469   76.1732 C.3      80      M_D    0.0000
   2834 H          39.3806    5.6571   77.1885 H        80      M_D    0.0000
   2835 H          41.0176    6.2246   77.8666 H        80      M_D    0.0000
   2836 H          41.3423    7.6633   75.9288 H        80      M_D    0.0000
   2837 H          39.7065    7.0519   75.2556 H        80      M_D    0.0000
   2838 C          39.5491    9.0475   76.3759 C.2      81      M_A    0.0000
   2839 O          40.3522    9.9605   75.9455 O.2      81      M_A    0.0000
   2840 C          38.1126    9.2133   77.0228 C.3      81      M_A    0.0000
   2841 O          37.4457   10.3366   76.2849 O.2      81      M_A    0.0000
   2842 H          38.2368    9.4725   78.1477 H        81      M_A    0.0000
   2843 H          37.5246    8.2214   76.8869 H        81      M_A    0.0000
   2844 C           6.9525    7.0653   45.4117 C.1      82      M_A    0.0000
   2845 O           7.7956    6.5461   44.8877 O.2      82      M_A    0.0000
   2846 C           6.8993    8.3525   45.8940 C.3      82      M_A    0.0000
   2847 O           8.1331    8.7165   46.1015 O.3      82      M_A    0.0000
   2848 H           6.3737    8.3554   46.7545 H        82      M_A    0.0000
   2849 H           6.4621    8.9409   45.2016 H        82      M_A    0.0000
   2850 O           8.8679    8.4339   45.0704 O.3      83      M_D    0.0000
   2851 C          10.0735    8.9386   45.1870 C.3      83      M_D    0.0000
   2852 C          10.2785    9.9474   44.2344 C.3      83      M_D    0.0000
   2853 H          10.7304    8.1839   45.0605 H        83      M_D    0.0000
   2854 H          10.2323    9.3000   46.1175 H        83      M_D    0.0000
   2855 H          10.3412    9.5632   43.3061 H        83      M_D    0.0000
   2856 H           9.4917   10.5764   44.2514 H        83      M_D    0.0000
   2857 O          11.4628   10.7141   44.5054 O.3      84      M_D    0.0000
   2858 C          11.3079   11.9726   44.1675 C.3      84      M_D    0.0000
   2859 C          12.4637   12.4589   43.5393 C.3      84      M_D    0.0000
   2860 H          11.1109   12.4896   45.0108 H        84      M_D    0.0000
   2861 H          10.5056   12.0954   43.5653 H        84      M_D    0.0000
   2862 H          12.6122   12.0075   42.6518 H        84      M_D    0.0000
   2863 H          12.3495   13.4445   43.3644 H        84      M_D    0.0000
   2864 O          13.6346   12.2876   44.3539 O.3      85      M_D    0.0000
   2865 C          14.3836   13.3650   44.3509 C.3      85      M_D    0.0000
   2866 C          15.6502   13.0818   43.8195 C.3      85      M_D    0.0000
   2867 H          14.4557   13.6853   45.3045 H        85      M_D    0.0000
   2868 H          13.9472   14.1146   43.8321 H        85      M_D    0.0000
   2869 H          16.0152   12.2198   44.1898 H        85      M_D    0.0000
   2870 H          15.5681   12.9740   42.8212 H        85      M_D    0.0000
   2871 O          16.5914   14.1370   44.0738 O.3      86      M_D    0.0000
   2872 C          17.3039   14.4126   43.0070 C.3      86      M_D    0.0000
   2873 C          18.4819   15.0854   43.3627 C.3      86      M_D    0.0000
   2874 H          16.7325   14.9811   42.4009 H        86      M_D    0.0000
   2875 H          17.5243   13.5751   42.4858 H        86      M_D    0.0000
   2876 H          18.8109   14.7889   44.2668 H        86      M_D    0.0000
   2877 H          19.1990   14.8649   42.6903 H        86      M_D    0.0000
   2878 C          18.3083   16.5115   43.3717 C.2      87      M_B    0.0000
   2879 O          17.2262   16.7676   43.5116 O.2      87      M_B    0.0000
   2880 C          19.3860   17.3672   43.2273 C.3      87      M_B    0.0000
   2881 C          19.2548   18.1134   42.0476 C.3      87      M_B    0.0000
   2882 O          19.3213   18.1569   44.2702 O.3      87      M_B    0.0000
   2883 H          20.2306   16.8132   43.2253 H        87      M_B    0.0000
   2884 H          19.2572   17.5223   41.2335 H        87      M_B    0.0000
   2885 H          18.3963   18.6410   42.0488 H        87      M_B    0.0000
   2886 H          20.0053   18.7778   41.9567 H        87      M_B    0.0000
   2887 C          20.4797   18.6661   44.5615 C.2      88      M_B    0.0000
   2888 O          20.5653   18.8225   45.6679 O.2      88      M_B    0.0000
   2889 C          21.4133   18.9369   43.5767 C.3      88      M_B    0.0000
   2890 C          20.7847   19.5029   42.4587 C.3      88      M_B    0.0000
   2891 O          22.2270   19.8049   44.1245 O.3      88      M_B    0.0000
   2892 H          21.8838   18.0743   43.3424 H        88      M_B    0.0000
   2893 H          20.1210   18.8689   42.0466 H        88      M_B    0.0000
   2894 H          20.2964   20.3479   42.7093 H        88      M_B    0.0000
   2895 H          21.4593   19.7537   41.7551 H        88      M_B    0.0000
   2896 O          23.4176   19.7398   43.6106 O.3      89      M_D    0.0000
   2897 C          24.0366   20.8945   43.6850 C.3      89      M_D    0.0000
   2898 C          24.9100   21.0550   42.5994 C.3      89      M_D    0.0000
   2899 H          24.5400   20.9114   44.5587 H        89      M_D    0.0000
   2900 H          23.3799   21.6619   43.7209 H        89      M_D    0.0000
   2901 H          25.5412   20.2746   42.5224 H        89      M_D    0.0000
   2902 H          24.3700   21.0951   41.7498 H        89      M_D    0.0000
   2903 O          25.6738   22.2680   42.6949 O.3      90      M_D    0.0000
   2904 C          26.9531   22.0193   42.8474 C.3      90      M_D    0.0000
   2905 C          27.2827   21.9556   44.2092 C.3      90      M_D    0.0000
   2906 H          27.4615   22.7588   42.3873 H        90      M_D    0.0000
   2907 H          27.2186   21.1613   42.3838 H        90      M_D    0.0000
   2908 H          26.9981   21.0776   44.6113 H        90      M_D    0.0000
   2909 H          28.2832   22.0249   44.3059 H        90      M_D    0.0000
   2910 O          26.6910   23.0284   44.9593 O.3      91      M_D    0.0000
   2911 C          25.4515   23.2472   44.5885 C.3      91      M_D    0.0000
   2912 C          25.3429   24.4879   43.9435 C.3      91      M_D    0.0000
   2913 H          24.8789   23.2205   45.4183 H        91      M_D    0.0000
   2914 H          25.1125   22.5099   43.9860 H        91      M_D    0.0000
   2915 H          24.9525   24.3850   43.0213 H        91      M_D    0.0000
   2916 H          24.7211   25.0774   44.4735 H        91      M_D    0.0000
   2917 O          26.6096   25.1583   43.8443 O.3      92      M_D    0.0000
   2918 C          27.5882   24.4038   44.2859 C.3      92      M_D    0.0000
   2919 C          27.7726   24.5939   45.6632 C.3      92      M_D    0.0000
   2920 H          28.4189   24.6556   43.7725 H        92      M_D    0.0000
   2921 H          27.4174   23.4275   44.0883 H        92      M_D    0.0000
   2922 H          26.9446   24.3442   46.1785 H        92      M_D    0.0000
   2923 H          28.5193   23.9953   45.9777 H        92      M_D    0.0000
   2924 C          28.1301   25.9491   45.9787 C.2      93      M_A    0.0000
   2925 O          28.0445   26.1314   47.0806 O.2      93      M_A    0.0000
   2926 C          28.5116   26.8232   44.9872 C.3      93      M_A    0.0000
   2927 O          27.4433   27.4935   44.6599 O.2      93      M_A    0.0000
   2928 H          28.8583   26.2930   44.2027 H        93      M_A    0.0000
   2929 H          29.2239   27.4368   45.3517 H        93      M_A    0.0000
   2930 C          -5.5549  -11.8291   88.8456 C.1      94      M_A    0.0000
   2931 O          -4.8340  -12.5118   89.5026 O.2      94      M_A    0.0000
   2932 C          -6.6465  -12.2346   87.9614 C.3      94      M_A    0.0000
   2933 O          -6.5276  -13.6048   87.8004 O.3      94      M_A    0.0000
   2934 H          -6.5369  -11.7282   87.0233 H        94      M_A    0.0000
   2935 H          -7.5787  -11.9835   88.4266 H        94      M_A    0.0000
   2936 O          -5.4294  -13.9044   87.0225 O.3      95      M_D    0.0000
   2937 C          -5.4736  -15.2200   86.5620 C.3      95      M_D    0.0000
   2938 C          -4.7828  -16.1317   87.5178 C.3      95      M_D    0.0000
   2939 H          -4.9985  -15.2399   85.6015 H        95      M_D    0.0000
   2940 H          -6.4853  -15.5451   86.4049 H        95      M_D    0.0000
   2941 H          -3.7630  -16.2877   87.2342 H        95      M_D    0.0000
   2942 H          -4.7835  -15.6805   88.4889 H        95      M_D    0.0000
   2943 O          -5.4818  -17.4846   87.6284 O.3      96      M_D    0.0000
   2944 C          -4.8868  -18.4357   86.8000 C.3      96      M_D    0.0000
   2945 C          -5.9040  -19.4055   86.3032 C.3      96      M_D    0.0000
   2946 H          -4.1307  -18.9333   87.3741 H        96      M_D    0.0000
   2947 H          -4.3816  -17.9722   85.9731 H        96      M_D    0.0000
   2948 H          -6.5444  -18.9542   85.5745 H        96      M_D    0.0000
   2949 H          -5.4006  -20.2233   85.8297 H        96      M_D    0.0000
   2950 O          -6.7584  -19.9720   87.4347 O.3      97      M_D    0.0000
   2951 C          -7.1325  -21.2912   87.1805 C.3      97      M_D    0.0000
   2952 C          -8.0087  -21.8054   88.2713 C.3      97      M_D    0.0000
   2953 H          -6.2340  -21.8707   87.1049 H        97      M_D    0.0000
   2954 H          -7.6296  -21.3805   86.2325 H        97      M_D    0.0000
   2955 H          -7.7362  -21.3843   89.2164 H        97      M_D    0.0000
   2956 H          -9.0198  -21.5177   88.0681 H        97      M_D    0.0000
   2957 O          -7.9653  -23.3282   88.3733 O.3      98      M_D    0.0000
   2958 C          -7.7059  -23.9156   87.1354 C.3      98      M_D    0.0000
   2959 C          -8.5299  -25.1449   86.9573 C.3      98      M_D    0.0000
   2960 H          -6.6599  -24.1469   87.1028 H        98      M_D    0.0000
   2961 H          -7.8878  -23.2276   86.3308 H        98      M_D    0.0000
   2962 H          -9.3570  -25.1571   87.6358 H        98      M_D    0.0000
   2963 H          -8.9267  -25.1549   85.9629 H        98      M_D    0.0000
   2964 C          -7.7100  -26.4187   87.1484 C.2      99      M_B    0.0000
   2965 O          -6.7383  -26.1876   87.7973 O.2      99      M_B    0.0000
   2966 C          -8.1479  -27.7012   86.5774 C.3      99      M_B    0.0000
   2967 C          -7.3374  -28.0284   85.3706 C.3      99      M_B    0.0000
   2968 O          -7.9073  -28.6325   87.5836 O.3      99      M_B    0.0000
   2969 H          -9.1928  -27.6247   86.3433 H        99      M_B    0.0000
   2970 H          -7.4690  -27.3002   84.5988 H        99      M_B    0.0000
   2971 H          -6.2947  -28.0740   85.6107 H        99      M_B    0.0000
   2972 H          -7.6069  -28.9859   84.9770 H        99      M_B    0.0000
   2973 C          -8.8488  -29.6415   87.5832 C.2     100      M_B    0.0000
   2974 O          -9.5056  -29.5900   88.5755 O.2     100      M_B    0.0000
   2975 C          -8.9497  -30.5908   86.4646 C.3     100      M_B    0.0000
   2976 C          -7.5908  -30.9315   85.9572 C.3     100      M_B    0.0000
   2977 O          -9.5524  -31.7180   87.0158 O.3     100      M_B    0.0000
   2978 H          -9.5571  -30.1446   85.7000 H       100      M_B    0.0000
   2979 H          -7.0878  -30.0708   85.5707 H       100      M_B    0.0000
   2980 H          -6.9852  -31.3492   86.7355 H       100      M_B    0.0000
   2981 H          -7.6455  -31.6645   85.1800 H       100      M_B    0.0000
   2982 O         -10.2003  -32.4719   86.0586 O.3     101      M_D    0.0000
   2983 C         -10.3084  -33.8069   86.4472 C.3     101      M_D    0.0000
   2984 C         -11.4657  -34.4566   85.7687 C.3     101      M_D    0.0000
   2985 H         -10.4300  -33.8223   87.5120 H       101      M_D    0.0000
   2986 H          -9.4046  -34.3487   86.2390 H       101      M_D    0.0000
   2987 H         -11.8080  -35.3078   86.3193 H       101      M_D    0.0000
   2988 H         -12.2747  -33.7571   85.7179 H       101      M_D    0.0000
   2989 O         -11.1279  -34.8881   84.3436 O.3     102      M_D    0.0000
   2990 C          -9.9884  -34.2383   83.8701 C.3     102      M_D    0.0000
   2991 C          -9.9672  -34.2402   82.3796 C.3     102      M_D    0.0000
   2992 H          -9.1367  -34.7544   84.2664 H       102      M_D    0.0000
   2993 H          -9.9304  -33.2317   84.2405 H       102      M_D    0.0000
   2994 H         -10.3941  -33.3414   81.9862 H       102      M_D    0.0000
   2995 H          -8.9503  -34.2878   82.0478 H       102      M_D    0.0000
   2996 O         -10.7082  -35.4408   81.7960 O.3     103      M_D    0.0000
   2997 C         -12.0531  -35.1497   81.5693 C.3     103      M_D    0.0000
   2998 C         -12.9234  -36.2018   82.1671 C.3     103      M_D    0.0000
   2999 H         -12.1946  -35.0920   80.5084 H       103      M_D    0.0000
   3000 H         -12.3153  -34.1847   81.9615 H       103      M_D    0.0000
   3001 H         -13.8107  -36.3448   81.5866 H       103      M_D    0.0000
   3002 H         -12.3891  -37.1297   82.1756 H       103      M_D    0.0000
   3003 O         -13.3166  -35.8733   83.6054 O.3     104      M_D    0.0000
   3004 C         -13.4425  -37.0284   84.3767 C.3     104      M_D    0.0000
   3005 C         -14.8770  -37.3056   84.6723 C.3     104      M_D    0.0000
   3006 H         -12.8878  -36.8728   85.2805 H       104      M_D    0.0000
   3007 H         -12.9942  -37.8742   83.8895 H       104      M_D    0.0000
   3008 H         -15.5191  -36.7800   83.9969 H       104      M_D    0.0000
   3009 H         -15.0607  -38.3527   84.5451 H       104      M_D    0.0000
   3010 C         -15.2504  -36.9341   86.1054 C.2     105      M_A    0.0000
   3011 O         -15.9894  -37.7451   86.5676 O.2     105      M_A    0.0000
   3012 C         -14.7143  -35.7236   86.7259 C.3     105      M_A    0.0000
   3013 O         -14.8351  -35.9019   88.0938 O.2     105      M_A    0.0000
   3014 H         -15.2918  -34.8827   86.3973 H       105      M_A    0.0000
   3015 H         -13.6861  -35.6172   86.4433 H       105      M_A    0.0000
   3016 C           8.4195   -6.6690   88.1879 C.1     106      M_A    0.0000
   3017 O           9.1373   -5.9657   88.4812 O.2     106      M_A    0.0000
   3018 C           8.5790   -7.9127   87.9038 C.3     106      M_A    0.0000
   3019 O           9.1204   -8.4174   88.8708 O.3     106      M_A    0.0000
   3020 H           9.1247   -7.9817   87.1387 H       106      M_A    0.0000
   3021 H           7.7335   -8.3000   87.7515 H       106      M_A    0.0000
   3022 O           9.8940   -7.6344   89.3790 O.3     107      M_D    0.0000
   3023 C          10.5133   -7.0010   88.5311 C.3     107      M_D    0.0000
   3024 C          11.7272   -7.4772   88.3974 C.3     107      M_D    0.0000
   3025 H          10.5330   -6.1009   88.8098 H       107      M_D    0.0000
   3026 H          10.0656   -7.0114   87.6995 H       107      M_D    0.0000
   3027 H          12.2535   -7.2823   89.1525 H       107      M_D    0.0000
   3028 H          11.6797   -8.4141   88.3175 H       107      M_D    0.0000
   3029 O          12.3392   -7.0000   87.3018 O.3     108      M_D    0.0000
   3030 C          13.0758   -7.8406   86.7971 C.3     108      M_D    0.0000
   3031 C          14.2921   -7.7310   87.2731 C.3     108      M_D    0.0000
   3032 H          13.0647   -7.7022   85.8649 H       108      M_D    0.0000
   3033 H          12.7475   -8.7147   86.9394 H       108      M_D    0.0000
   3034 H          14.4946   -6.8369   87.4846 H       108      M_D    0.0000
   3035 H          14.3546   -8.2326   88.0674 H       108      M_D    0.0000
   3036 O          15.2140   -8.1981   86.4161 O.3     109      M_D    0.0000
   3037 C          16.0508   -8.8875   86.9890 C.3     109      M_D    0.0000
   3038 C          17.2611   -8.4739   86.7023 C.3     109      M_D    0.0000
   3039 H          15.9232   -9.7780   86.7078 H       109      M_D    0.0000
   3040 H          15.9178   -8.8830   87.9241 H       109      M_D    0.0000
   3041 H          17.5229   -8.7584   85.8446 H       109      M_D    0.0000
   3042 H          17.2699   -7.5325   86.7050 H       109      M_D    0.0000
   3043 O          18.1656   -8.8978   87.5994 O.3     110      M_D    0.0000
   3044 C          18.8778   -9.7817   87.1355 C.3     110      M_D    0.0000
   3045 C          19.3542  -10.5383   88.0939 C.3     110      M_D    0.0000
   3046 H          19.5745   -9.3620   86.6593 H       110      M_D    0.0000
   3047 H          18.4072  -10.3081   86.5080 H       110      M_D    0.0000
   3048 H          19.6361  -10.0204   88.8270 H       110      M_D    0.0000
   3049 H          18.6720  -11.1124   88.3964 H       110      M_D    0.0000
   3050 C          20.3783  -11.2989   87.6753 C.2     111      M_B    0.0000
   3051 O          20.1858  -11.6652   86.7131 O.2     111      M_B    0.0000
   3052 C          21.4183  -11.4927   88.4190 C.3     111      M_B    0.0000
   3053 C          21.0579  -11.9853   89.5783 C.3     111      M_B    0.0000
   3054 O          22.0886  -12.3111   87.8031 O.3     111      M_B    0.0000
   3055 H          21.8691  -10.6690   88.5159 H       111      M_B    0.0000
   3056 H          20.5069  -11.3884   90.0517 H       111      M_B    0.0000
   3057 H          20.5874  -12.7937   89.4690 H       111      M_B    0.0000
   3058 H          21.8094  -12.1772   90.1105 H       111      M_B    0.0000
   3059 C          22.9772  -12.7726   88.4887 C.2     112      M_B    0.0000
   3060 O          22.5717  -13.3288   89.2782 O.2     112      M_B    0.0000
   3061 C          24.2213  -12.5613   88.2065 C.3     112      M_B    0.0000
   3062 C          24.5238  -11.3038   88.4162 C.3     112      M_B    0.0000
   3063 O          24.8389  -13.2786   88.9827 O.3     112      M_B    0.0000
   3064 H          24.3657  -12.8085   87.3070 H       112      M_B    0.0000
   3065 H          24.0292  -10.7312   87.8579 H       112      M_B    0.0000
   3066 H          24.3525  -11.0608   89.3098 H       112      M_B    0.0000
   3067 H          25.4384  -11.1476   88.2619 H       112      M_B    0.0000
   3068 O          25.7121  -13.9049   88.4190 O.3     113      M_D    0.0000
   3069 C          26.6308  -14.1809   89.1829 C.3     113      M_D    0.0000
   3070 C          27.7757  -14.1780   88.5446 C.3     113      M_D    0.0000
   3071 H          26.4496  -15.0314   89.5465 H       113      M_D    0.0000
   3072 H          26.6628  -13.5819   89.9124 H       113      M_D    0.0000
   3073 H          27.6715  -14.4782   87.6591 H       113      M_D    0.0000
   3074 H          28.1025  -13.2957   88.5096 H       113      M_D    0.0000
   3075 O          28.6983  -14.9359   89.1585 O.3     114      M_D    0.0000
   3076 C          29.6057  -15.2456   88.3940 C.3     114      M_D    0.0000
   3077 C          29.3602  -16.4056   87.8354 C.3     114      M_D    0.0000
   3078 H          30.4015  -15.2757   88.8982 H       114      M_D    0.0000
   3079 H          29.7366  -14.5856   87.7311 H       114      M_D    0.0000
   3080 H          28.8299  -16.3059   87.0647 H       114      M_D    0.0000
   3081 H          30.1757  -16.7952   87.5714 H       114      M_D    0.0000
   3082 O          28.7515  -17.2540   88.6793 O.3     115      M_D    0.0000
   3083 C          28.7608  -16.8274   89.8289 C.3     115      M_D    0.0000
   3084 C          29.4288  -17.6368   90.6141 C.3     115      M_D    0.0000
   3085 H          27.8640  -16.7502   90.1085 H       115      M_D    0.0000
   3086 H          29.1270  -15.9577   89.8696 H       115      M_D    0.0000
   3087 H          29.8426  -17.1651   91.3152 H       115      M_D    0.0000
   3088 H          28.8286  -18.2512   90.9997 H       115      M_D    0.0000
   3089 O          30.3609  -18.3343   89.9454 O.3     116      M_D    0.0000
   3090 C          30.0137  -18.5544   88.7900 C.3     116      M_D    0.0000
   3091 C          30.2232  -19.8102   88.4785 C.3     116      M_D    0.0000
   3092 H          30.5114  -17.9809   88.2317 H       116      M_D    0.0000
   3093 H          29.1055  -18.3324   88.6561 H       116      M_D    0.0000
   3094 H          29.8354  -20.3867   89.1129 H       116      M_D    0.0000
   3095 H          29.8196  -19.9891   87.6469 H       116      M_D    0.0000
   3096 C          31.5314  -20.0928   88.3718 C.2     117      M_A    0.0000
   3097 O          31.7637  -20.9625   88.9060 O.2     117      M_A    0.0000
   3098 C          32.3116  -19.3368   87.6842 C.3     117      M_A    0.0000
   3099 O          33.3007  -20.0023   87.4361 O.2     117      M_A    0.0000
   3100 H          32.5354  -18.5815   88.2012 H       117      M_A    0.0000
   3101 H          31.8686  -19.0844   86.8917 H       117      M_A    0.0000
   3102 C         -12.6128   -2.0543   39.3579 C.1     118      M_A    0.0000
   3103 O         -12.9888   -2.7700   40.2694 O.2     118      M_A    0.0000
   3104 C         -13.4291   -1.2124   38.4286 C.3     118      M_A    0.0000
   3105 O         -14.7536   -1.2342   38.9320 O.3     118      M_A    0.0000
   3106 H         -13.3849   -1.6506   37.4242 H       118      M_A    0.0000
   3107 H         -13.0264   -0.1923   38.4304 H       118      M_A    0.0000
   3108 O         -14.7552   -1.0025   40.3239 O.3     119      M_D    0.0000
   3109 C         -15.2767   -2.1220   41.0392 C.3     119      M_D    0.0000
   3110 C         -16.7949   -2.0248   41.1515 C.3     119      M_D    0.0000
   3111 H         -14.8091   -2.1245   42.0314 H       119      M_D    0.0000
   3112 H         -14.9915   -3.0699   40.5612 H       119      M_D    0.0000
   3113 H         -17.2546   -3.0185   41.1647 H       119      M_D    0.0000
   3114 H         -17.0496   -1.5293   42.0950 H       119      M_D    0.0000
   3115 O         -17.4183   -1.1902   39.9869 O.3     120      M_D    0.0000
   3116 C         -18.5530   -0.4450   40.4275 C.3     120      M_D    0.0000
   3117 C         -19.8299   -0.9925   39.7977 C.3     120      M_D    0.0000
   3118 H         -18.3907    0.6010   40.1399 H       120      M_D    0.0000
   3119 H         -18.6363   -0.4544   41.5236 H       120      M_D    0.0000
   3120 H         -19.9445   -0.6407   38.7671 H       120      M_D    0.0000
   3121 H         -19.7705   -2.0863   39.7697 H       120      M_D    0.0000
   3122 O         -21.1030   -0.6012   40.6146 O.3     121      M_D    0.0000
   3123 C         -22.1103   -1.6084   40.5264 C.3     121      M_D    0.0000
   3124 C         -23.3203   -1.0887   39.7565 C.3     121      M_D    0.0000
   3125 H         -22.3868   -1.8869   41.5507 H       121      M_D    0.0000
   3126 H         -21.7224   -2.5212   40.0524 H       121      M_D    0.0000
   3127 H         -23.2628   -0.0045   39.6150 H       121      M_D    0.0000
   3128 H         -23.3345   -1.5522   38.7637 H       121      M_D    0.0000
   3129 O         -24.6657   -1.4391   40.4697 O.3     122      M_D    0.0000
   3130 C         -25.7034   -1.7039   39.5263 C.3     122      M_D    0.0000
   3131 C         -26.9044   -0.7994   39.7845 C.3     122      M_D    0.0000
   3132 H         -25.9787   -2.7607   39.6289 H       122      M_D    0.0000
   3133 H         -25.3475   -1.5764   38.4941 H       122      M_D    0.0000
   3134 H         -26.9509   -0.4945   40.8351 H       122      M_D    0.0000
   3135 H         -26.8007    0.1087   39.1802 H       122      M_D    0.0000
   3136 C         -28.2523   -1.4858   39.3928 C.2     123      M_B    0.0000
   3137 O         -28.0364   -2.4981   38.7490 O.2     123      M_B    0.0000
   3138 C         -29.5759   -0.9018   39.8078 C.3     123      M_B    0.0000
   3139 C         -29.7865    0.4504   39.1352 C.3     123      M_B    0.0000
   3140 O         -30.5425   -1.8382   39.3407 O.3     123      M_B    0.0000
   3141 H         -29.5844   -0.8150   40.9030 H       123      M_B    0.0000
   3142 H         -29.0261    1.1753   39.4413 H       123      M_B    0.0000
   3143 H         -29.7469    0.3556   38.0440 H       123      M_B    0.0000
   3144 H         -30.7706    0.8613   39.3823 H       123      M_B    0.0000
   3145 C         -31.8424   -1.5173   39.7897 C.2     124      M_B    0.0000
   3146 O         -32.4702   -2.5363   40.0209 O.2     124      M_B    0.0000
   3147 C         -32.2882   -0.0871   39.9341 C.3     124      M_B    0.0000
   3148 C         -31.9586    0.6955   38.6676 C.3     124      M_B    0.0000
   3149 O         -33.6998   -0.1679   40.1077 O.3     124      M_B    0.0000
   3150 H         -31.7901    0.3402   40.8152 H       124      M_B    0.0000
   3151 H         -30.8802    0.7311   38.4853 H       124      M_B    0.0000
   3152 H         -32.4372    0.2429   37.7917 H       124      M_B    0.0000
   3153 H         -32.3287    1.7236   38.7353 H       124      M_B    0.0000
   3154 O         -34.0752   -1.3325   40.8127 O.3     125      M_D    0.0000
   3155 C         -35.4214   -1.7074   40.5230 C.3     125      M_D    0.0000
   3156 C         -36.3832   -1.0506   41.5081 C.3     125      M_D    0.0000
   3157 H         -35.4791   -2.8009   40.5879 H       125      M_D    0.0000
   3158 H         -35.6965   -1.4446   39.4917 H       125      M_D    0.0000
   3159 H         -37.1137   -1.7724   41.8882 H       125      M_D    0.0000
   3160 H         -35.8119   -0.6752   42.3645 H       125      M_D    0.0000
   3161 O         -37.1435    0.1568   40.8713 O.3     126      M_D    0.0000
   3162 C         -36.8821    1.3695   41.5768 C.3     126      M_D    0.0000
   3163 C         -37.6860    2.5199   40.9791 C.3     126      M_D    0.0000
   3164 H         -35.8051    1.5650   41.5061 H       126      M_D    0.0000
   3165 H         -37.1072    1.2655   42.6477 H       126      M_D    0.0000
   3166 H         -38.7340    2.4747   41.2931 H       126      M_D    0.0000
   3167 H         -37.2721    3.4675   41.3415 H       126      M_D    0.0000
   3168 O         -37.6217    2.5334   39.4179 O.3     127      M_D    0.0000
   3169 C         -37.1936    1.2735   38.9019 C.3     127      M_D    0.0000
   3170 C         -37.3963    1.2177   37.3910 C.3     127      M_D    0.0000
   3171 H         -37.7805    0.4957   39.4056 H       127      M_D    0.0000
   3172 H         -36.1413    1.0762   39.1511 H       127      M_D    0.0000
   3173 H         -38.0126    2.0535   37.0438 H       127      M_D    0.0000
   3174 H         -36.4205    1.2989   36.8992 H       127      M_D    0.0000
   3175 O         -38.0539   -0.1244   36.9352 O.3     128      M_D    0.0000
   3176 C         -39.2861    0.1032   36.2521 C.3     128      M_D    0.0000
   3177 C         -40.4060   -0.7202   36.8805 C.3     128      M_D    0.0000
   3178 H         -39.1359   -0.1755   35.2019 H       128      M_D    0.0000
   3179 H         -39.5528    1.1696   36.2533 H       128      M_D    0.0000
   3180 H         -41.1495   -0.0752   37.3601 H       128      M_D    0.0000
   3181 H         -40.9162   -1.2847   36.0920 H       128      M_D    0.0000
   3182 C         -39.8654   -1.7432   37.9306 C.2     129      M_A    0.0000
   3183 O         -40.5138   -1.6812   38.9602 O.2     129      M_A    0.0000
   3184 C         -38.7033   -2.6280   37.6060 C.3     129      M_A    0.0000
   3185 O         -38.6761   -3.6317   38.6061 O.2     129      M_A    0.0000
   3186 H         -37.7855   -2.0281   37.6284 H       129      M_A    0.0000
   3187 H         -38.8608   -3.0682   36.6139 H       129      M_A    0.0000
   3188 C         -12.3532   -0.5823   18.7583 C.1     130      M_A    0.0000
   3189 O         -12.6920   -1.1986   19.6344 O.2     130      M_A    0.0000
   3190 C         -13.1007    0.2339   17.9344 C.3     130      M_A    0.0000
   3191 O         -14.2500    0.4049   18.5324 O.3     130      M_A    0.0000
   3192 H         -13.2228   -0.2274   17.0428 H       130      M_A    0.0000
   3193 H         -12.6170    1.1151   17.8232 H       130      M_A    0.0000
   3194 O         -14.0941    0.4051   19.8242 O.3     131      M_D    0.0000
   3195 C         -15.2100    0.0848   20.4441 C.3     131      M_D    0.0000
   3196 C         -16.0502    1.2072   20.5585 C.3     131      M_D    0.0000
   3197 H         -14.9579   -0.2730   21.3560 H       131      M_D    0.0000
   3198 H         -15.6939   -0.6673   19.9670 H       131      M_D    0.0000
   3199 H         -16.3686    1.3287   21.5089 H       131      M_D    0.0000
   3200 H         -15.5281    2.0338   20.3031 H       131      M_D    0.0000
   3201 O         -17.1943    1.1190   19.6871 O.3     132      M_D    0.0000
   3202 C         -18.3107    0.9810   20.3703 C.3     132      M_D    0.0000
   3203 C         -19.3847    0.6958   19.5077 C.3     132      M_D    0.0000
   3204 H         -18.4683    1.8457   20.8708 H       132      M_D    0.0000
   3205 H         -18.2251    0.2564   21.0739 H       132      M_D    0.0000
   3206 H         -19.3313    1.2483   18.6643 H       132      M_D    0.0000
   3207 H         -19.3386   -0.2772   19.2391 H       132      M_D    0.0000
   3208 O         -20.6607    0.9215   20.1377 O.3     133      M_D    0.0000
   3209 C         -21.5613    0.0546   19.7259 C.3     133      M_D    0.0000
   3210 C         -22.7146    0.7197   19.2718 C.3     133      M_D    0.0000
   3211 H         -21.7768   -0.5519   20.5062 H       133      M_D    0.0000
   3212 H         -21.1911   -0.5424   18.9951 H       133      M_D    0.0000
   3213 H         -22.4743    1.5220   18.7078 H       133      M_D    0.0000
   3214 H         -23.2495    0.0880   18.6923 H       133      M_D    0.0000
   3215 O         -23.5586    1.1453   20.3593 O.3     134      M_D    0.0000
   3216 C         -24.8312    1.1031   20.0265 C.3     134      M_D    0.0000
   3217 C         -25.5224    2.1958   20.5804 C.3     134      M_D    0.0000
   3218 H         -25.2047    0.2275   20.3684 H       134      M_D    0.0000
   3219 H         -24.9486    1.0888   19.0197 H       134      M_D    0.0000
   3220 H         -25.0854    2.5079   21.4355 H       134      M_D    0.0000
   3221 H         -25.4965    2.9649   19.9256 H       134      M_D    0.0000
   3222 C         -26.9044    1.8855   20.8449 C.2     135      M_B    0.0000
   3223 O         -26.9831    1.1848   21.7203 O.2     135      M_B    0.0000
   3224 C         -27.9245    2.4287   20.0765 C.3     135      M_B    0.0000
   3225 C         -27.7911    2.0207   18.7374 C.3     135      M_B    0.0000
   3226 O         -29.0263    1.9334   20.5928 O.3     135      M_B    0.0000
   3227 H         -27.8849    3.4371   20.1653 H       135      M_B    0.0000
   3228 H         -26.9287    2.3528   18.3321 H       135      M_B    0.0000
   3229 H         -27.8049    1.0129   18.6637 H       135      M_B    0.0000
   3230 H         -28.5568    2.3655   18.1771 H       135      M_B    0.0000
   3231 C         -29.8848    2.8677   20.8859 C.2     136      M_B    0.0000
   3232 O         -29.3800    3.8720   20.8833 O.2     136      M_B    0.0000
   3233 C         -31.2153    2.5684   21.1433 C.3     136      M_B    0.0000
   3234 C         -31.3336    1.9192   22.3850 C.3     136      M_B    0.0000
   3235 O         -31.8145    3.7367   21.1845 O.3     136      M_B    0.0000
   3236 H         -31.5621    1.9917   20.3859 H       136      M_B    0.0000
   3237 H         -30.8425    1.0378   22.3915 H       136      M_B    0.0000
   3238 H         -30.9603    2.4921   23.1292 H       136      M_B    0.0000
   3239 H         -32.3020    1.7430   22.6093 H       136      M_B    0.0000
   3240 O         -33.0973    3.6154   21.3732 O.3     137      M_D    0.0000
   3241 C         -33.6651    2.9348   20.4002 C.3     137      M_D    0.0000
   3242 C         -34.8784    2.3714   20.8352 C.3     137      M_D    0.0000
   3243 H         -33.0141    2.2155   20.1139 H       137      M_D    0.0000
   3244 H         -33.8220    3.5174   19.5856 H       137      M_D    0.0000
   3245 H         -35.6686    2.8977   20.4914 H       137      M_D    0.0000
   3246 H         -34.9532    1.4330   20.4681 H       137      M_D    0.0000
   3247 O         -34.9553    2.2925   22.2719 O.3     138      M_D    0.0000
   3248 C         -35.8261    3.1525   22.7556 C.3     138      M_D    0.0000
   3249 C         -35.1662    4.2689   23.3006 C.3     138      M_D    0.0000
   3250 H         -36.3667    2.6711   23.4622 H       138      M_D    0.0000
   3251 H         -36.4858    3.4484   22.0451 H       138      M_D    0.0000
   3252 H         -35.8202    4.8995   23.7414 H       138      M_D    0.0000
   3253 H         -34.5208    3.9526   24.0108 H       138      M_D    0.0000
   3254 O         -34.4129    4.9916   22.3074 O.3     139      M_D    0.0000
   3255 C         -34.9064    6.1956   22.1103 C.3     139      M_D    0.0000
   3256 C         -35.0166    6.4642   20.7339 C.3     139      M_D    0.0000
   3257 H         -34.2844    6.8550   22.5591 H       139      M_D    0.0000
   3258 H         -35.8080    6.3028   22.5610 H       139      M_D    0.0000
   3259 H         -35.6875    7.1981   20.5584 H       139      M_D    0.0000
   3260 H         -34.1207    6.7805   20.3899 H       139      M_D    0.0000
   3261 O         -35.3921    5.2941   19.9816 O.3     140      M_D    0.0000
   3262 C         -36.3267    5.5697   19.0969 C.3     140      M_D    0.0000
   3263 C         -36.2428    4.6917   18.0011 C.3     140      M_D    0.0000
   3264 H         -36.1928    6.5284   18.8036 H       140      M_D    0.0000
   3265 H         -37.2509    5.5252   19.5109 H       140      M_D    0.0000
   3266 H         -36.5653    3.7675   18.2490 H       140      M_D    0.0000
   3267 H         -36.8388    5.0349   17.2608 H       140      M_D    0.0000
   3268 C         -34.9016    4.5982   17.4827 C.2     141      M_A    0.0000
   3269 O         -34.3358    5.5484   17.6807 O.2     141      M_A    0.0000
   3270 C         -34.4714    3.4521   16.8463 C.3     141      M_A    0.0000
   3271 O         -33.3526    3.7634   16.2469 O.3     141      M_A    0.0000
   3272 H         -35.1734    3.1688   16.1757 H       141      M_A    0.0000
   3273 H         -34.3210    2.7314   17.5397 H       141      M_A    0.0000
   3274 C         -32.4038    3.9397   17.1196 C.2     142      M_B    0.0000
   3275 O         -31.6441    3.1153   17.0374 O.2     142      M_B    0.0000
   3276 C         -32.4122    5.0261   17.9832 C.3     142      M_B    0.0000
   3277 C         -33.1357    4.7129   19.1476 C.3     142      M_B    0.0000
   3278 O         -31.1471    5.2247   18.2762 O.3     142      M_B    0.0000
   3279 H         -32.8159    5.8161   17.4940 H       142      M_B    0.0000
   3280 H         -34.1029    4.5125   18.9412 H       142      M_B    0.0000
   3281 H         -32.7405    3.9074   19.6128 H       142      M_B    0.0000
   3282 H         -33.1051    5.4761   19.8077 H       142      M_B    0.0000
   3283 O         -30.9898    5.5885   19.5167 O.3     143      M_D    0.0000
   3284 C         -31.1276    4.5698   20.3386 C.3     143      M_D    0.0000
   3285 C         -32.4556    4.4793   20.7934 C.3     143      M_D    0.0000
   3286 H         -30.4898    4.7148   21.1102 H       143      M_D    0.0000
   3287 H         -30.8485    3.7005   19.8982 H       143      M_D    0.0000
   3288 H         -33.1099    4.5971   20.0335 H       143      M_D    0.0000
   3289 H         -32.6049    3.5600   21.1854 H       143      M_D    0.0000
   3290 C         -32.7452    5.4501   21.8180 C.2     144      M_A    0.0000
   3291 O         -33.6926    6.0045   21.5787 O.2     144      M_A    0.0000
   3292 C         -31.9072    5.5983   22.9041 C.3     144      M_A    0.0000
   3293 O         -32.0435    4.5154   23.6228 O.3     144      M_A    0.0000
   3294 H         -32.1923    6.4163   23.4262 H       144      M_A    0.0000
   3295 H         -30.9569    5.6938   22.5717 H       144      M_A    0.0000
   3296 O         -32.5285    4.8062   24.7946 O.3     145      M_D    0.0000
   3297 C         -31.6882    5.5368   25.4961 C.3     145      M_D    0.0000
   3298 C         -32.0661    5.5591   26.8509 C.3     145      M_D    0.0000
   3299 H         -31.6958    6.4687   25.1028 H       145      M_D    0.0000
   3300 H         -30.7378    5.1966   25.4035 H       145      M_D    0.0000
   3301 H         -31.4757    4.9548   27.4039 H       145      M_D    0.0000
   3302 H         -31.9580    6.4993   27.2049 H       145      M_D    0.0000
   3303 C         -33.4412    5.1711   27.0366 C.2     146      M_A    0.0000
   3304 O         -34.0492    6.0405   27.4065 O.2     146      M_A    0.0000
   3305 C         -33.8511    3.8814   26.7675 C.3     146      M_A    0.0000
   3306 O         -35.0411    3.7576   27.2930 O.3     146      M_A    0.0000
   3307 H         -33.1992    3.2367   27.1942 H       146      M_A    0.0000
   3308 H         -33.8841    3.7527   25.7649 H       146      M_A    0.0000
   3309 C         -35.3772    2.5027   27.3654 C.2     147      M_B    0.0000
   3310 O         -35.4166    2.1738   28.4395 O.2     147      M_B    0.0000
   3311 C         -35.6370    1.7595   26.2225 C.3     147      M_B    0.0000
   3312 C         -34.4310    1.3353   25.6368 C.3     147      M_B    0.0000
   3313 O         -36.3211    0.7231   26.6511 O.3     147      M_B    0.0000
   3314 H         -36.1785    2.3341   25.5877 H       147      M_B    0.0000
   3315 H         -33.8673    2.1176   25.3393 H       147      M_B    0.0000
   3316 H         -33.8870    0.7858   26.2876 H       147      M_B    0.0000
   3317 H         -34.6064    0.7489   24.8340 H       147      M_B    0.0000
   3318 O         -37.2522    0.3770   25.8090 O.3     148      M_D    0.0000
   3319 C         -38.2164    1.2716   25.7625 C.3     148      M_D    0.0000
   3320 C         -39.4730    0.6484   25.8686 C.3     148      M_D    0.0000
   3321 H         -38.1300    1.7647   24.8836 H       148      M_D    0.0000
   3322 H         -38.1086    1.9680   26.4913 H       148      M_D    0.0000
   3323 H         -39.3966   -0.2512   26.3209 H       148      M_D    0.0000
   3324 H         -40.0773    1.2256   26.4367 H       148      M_D    0.0000
   3325 O         -40.1033    0.4769   24.5843 O.3     149      M_D    0.0000
   3326 C         -39.8833   -0.7254   24.0965 C.3     149      M_D    0.0000
   3327 C         -39.3437   -0.6405   22.8002 C.3     149      M_D    0.0000
   3328 H         -40.7681   -1.2157   24.0888 H       149      M_D    0.0000
   3329 H         -39.2669   -1.2602   24.6978 H       149      M_D    0.0000
   3330 H         -39.2816   -1.5523   22.3708 H       149      M_D    0.0000
   3331 H         -39.9547   -0.0744   22.2282 H       149      M_D    0.0000
   3332 O         -38.0392   -0.0286   22.7950 O.3     150      M_D    0.0000
   3333 C         -37.7582    0.4967   21.6214 C.3     150      M_D    0.0000
   3334 C         -37.5479   -0.5143   20.6662 C.3     150      M_D    0.0000
   3335 H         -36.9296    1.0656   21.7348 H       150      M_D    0.0000
   3336 H         -38.4931    1.1227   21.3123 H       150      M_D    0.0000
   3337 H         -36.5710   -0.7629   20.6077 H       150      M_D    0.0000
   3338 H         -38.0571   -1.3406   20.9473 H       150      M_D    0.0000
   3339 C         -38.0144   -0.1299   19.3583 C.2     151      M_A    0.0000
   3340 O         -38.4336   -1.0182   18.8129 O.2     151      M_A    0.0000
   3341 C         -37.9131    1.1782   18.9313 C.3     151      M_A    0.0000
   3342 O         -38.8233    1.3336   18.0065 O.2     151      M_A    0.0000
   3343 H         -36.9865    1.3270   18.5544 H       151      M_A    0.0000
   3344 H         -38.0878    1.7915   19.7163 H       151      M_A    0.0000
   3345 C           0.9641  -12.2939   47.7850 C.1     152      M_A    0.0000
   3346 O           1.8636  -12.3889   48.3541 O.2     152      M_A    0.0000
   3347 C           0.2277  -13.2377   47.2468 C.3     152      M_A    0.0000
   3348 O           0.8305  -14.3064   47.4456 O.3     152      M_A    0.0000
   3349 H           0.1400  -13.0629   46.3050 H       152      M_A    0.0000
   3350 H          -0.6323  -13.2432   47.6779 H       152      M_A    0.0000
   3351 O           2.0515  -14.1419   47.3282 O.3     153      M_D    0.0000
   3352 C           2.6206  -15.1901   46.9479 C.3     153      M_D    0.0000
   3353 C           3.2066  -15.8069   47.9806 C.3     153      M_D    0.0000
   3354 H           3.2694  -14.9405   46.2827 H       153      M_D    0.0000
   3355 H           2.0014  -15.7868   46.5116 H       153      M_D    0.0000
   3356 H           4.1306  -15.5559   48.0554 H       153      M_D    0.0000
   3357 H           2.7663  -15.5405   48.7924 H       153      M_D    0.0000
   3358 O           3.1204  -17.1713   47.8828 O.3     154      M_D    0.0000
   3359 C           4.1959  -17.6707   47.4815 C.3     154      M_D    0.0000
   3360 C           4.0473  -18.9800   47.2494 C.3     154      M_D    0.0000
   3361 H           4.8576  -17.5147   48.1623 H       154      M_D    0.0000
   3362 H           4.5144  -17.2260   46.6875 H       154      M_D    0.0000
   3363 H           3.6815  -19.1378   46.3754 H       154      M_D    0.0000
   3364 H           4.9103  -19.4018   47.2837 H       154      M_D    0.0000
   3365 O           3.2465  -19.5820   48.1847 O.3     155      M_D    0.0000
   3366 C           3.7289  -20.6719   48.5677 C.3     155      M_D    0.0000
   3367 C           3.0158  -21.6960   48.0849 C.3     155      M_D    0.0000
   3368 H           3.7193  -20.6689   49.5298 H       155      M_D    0.0000
   3369 H           4.6531  -20.7574   48.3064 H       155      M_D    0.0000
   3370 H           2.0740  -21.5479   48.2010 H       155      M_D    0.0000
   3371 H           3.1836  -21.7744   47.1417 H       155      M_D    0.0000
   3372 O           3.3575  -22.8854   48.6740 O.3     156      M_D    0.0000
   3373 C           4.5768  -22.9239   48.9551 C.3     156      M_D    0.0000
   3374 C           5.1526  -23.9964   48.3996 C.3     156      M_D    0.0000
   3375 H           4.6506  -22.9514   49.9140 H       156      M_D    0.0000
   3376 H           5.0275  -22.1199   48.6718 H       156      M_D    0.0000
   3377 H           4.7071  -24.2469   47.5865 H       156      M_D    0.0000
   3378 H           6.0626  -23.7808   48.1779 H       156      M_D    0.0000
   3379 C           5.1693  -25.0712   49.2499 C.2     157      M_B    0.0000
   3380 O           4.6322  -24.8407   50.1452 O.2     157      M_B    0.0000
   3381 C           5.7818  -26.1939   48.9231 C.3     157      M_B    0.0000
   3382 C           7.1032  -25.9959   48.8607 C.3     157      M_B    0.0000
   3383 O           5.5082  -26.9829   49.8526 O.3     157      M_B    0.0000
   3384 H           5.4276  -26.4953   48.0791 H       157      M_B    0.0000
   3385 H           7.3332  -25.3597   48.1799 H       157      M_B    0.0000
   3386 H           7.4420  -25.6711   49.6997 H       157      M_B    0.0000
   3387 H           7.5648  -26.8167   48.6732 H       157      M_B    0.0000
   3388 C           5.4641  -28.1572   49.4607 C.2     158      M_B    0.0000
   3389 O           4.4702  -28.4064   49.1554 O.2     158      M_B    0.0000
   3390 C           6.5434  -28.9173   49.4509 C.3     158      M_B    0.0000
   3391 C           7.2687  -28.7006   50.5536 C.3     158      M_B    0.0000
   3392 O           6.1036  -30.0870   49.4479 O.3     158      M_B    0.0000
   3393 H           7.0440  -28.7189   48.6518 H       158      M_B    0.0000
   3394 H           7.5822  -27.7945   50.5978 H       158      M_B    0.0000
   3395 H           6.7521  -28.8768   51.3449 H       158      M_B    0.0000
   3396 H           8.0309  -29.2840   50.5833 H       158      M_B    0.0000
   3397 O           6.9281  -30.8867   48.9841 O.3     159      M_D    0.0000
   3398 C           6.6055  -32.0711   49.2294 C.3     159      M_D    0.0000
   3399 C           7.2195  -32.9088   48.3858 C.3     159      M_D    0.0000
   3400 H           5.6494  -32.1335   49.1415 H       159      M_D    0.0000
   3401 H           6.8096  -32.3085   50.1414 H       159      M_D    0.0000
   3402 H           6.6576  -33.6574   48.1704 H       159      M_D    0.0000
   3403 H           7.4085  -32.4423   47.5670 H       159      M_D    0.0000
   3404 O           8.4066  -33.3713   48.8910 O.3     160      M_D    0.0000
   3405 C           8.7582  -32.7222   49.9020 C.3     160      M_D    0.0000
   3406 C           9.9979  -32.2440   49.7446 C.3     160      M_D    0.0000
   3407 H           8.7120  -33.3172   50.6567 H       160      M_D    0.0000
   3408 H           8.1446  -32.0019   50.0871 H       160      M_D    0.0000
   3409 H           9.9824  -31.3204   49.4816 H       160      M_D    0.0000
   3410 H          10.4615  -32.2992   50.5847 H       160      M_D    0.0000
   3411 O          10.7135  -32.9600   48.8206 O.3     161      M_D    0.0000
   3412 C          10.5236  -34.1908   48.9478 C.3     161      M_D    0.0000
   3413 C          11.2000  -34.8688   48.0133 C.3     161      M_D    0.0000
   3414 H           9.5774  -34.3460   48.8684 H       161      M_D    0.0000
   3415 H          10.7751  -34.4954   49.8273 H       161      M_D    0.0000
   3416 H          11.4494  -34.2973   47.2828 H       161      M_D    0.0000
   3417 H          12.0087  -35.2125   48.4028 H       161      M_D    0.0000
   3418 O          10.4828  -35.9302   47.5259 O.3     162      M_D    0.0000
   3419 C          10.1765  -35.7629   46.3237 C.3     162      M_D    0.0000
   3420 C           8.8493  -35.8231   46.1650 C.3     162      M_D    0.0000
   3421 H          10.6156  -36.4521   45.8159 H       162      M_D    0.0000
   3422 H          10.5140  -34.9238   45.9894 H       162      M_D    0.0000
   3423 H           8.4418  -34.9685   46.3263 H       162      M_D    0.0000
   3424 H           8.6557  -36.0706   45.2566 H       162      M_D    0.0000
   3425 C           8.2733  -36.7557   46.9877 C.2     163      M_A    0.0000
   3426 O           9.0076  -37.1946   47.6282 O.2     163      M_A    0.0000
   3427 C           6.9863  -37.0036   46.9208 C.3     163      M_A    0.0000
   3428 O           6.8620  -38.2353   47.0332 O.2     163      M_A    0.0000
   3429 H           6.6564  -36.7015   46.0692 H       163      M_A    0.0000
   3430 H           6.5448  -36.5467   47.6431 H       163      M_A    0.0000
   3431 C          10.5711   -2.6892   17.8902 C.1     164      M_A    0.0000
   3432 O          10.9720   -1.7095   17.9300 O.2     164      M_A    0.0000
   3433 C          11.2007   -3.8273   17.8610 C.3     164      M_A    0.0000
   3434 O          12.1877   -3.6952   18.5867 O.3     164      M_A    0.0000
   3435 H          11.4611   -4.0112   16.9623 H       164      M_A    0.0000
   3436 H          10.6214   -4.5073   18.1947 H       164      M_A    0.0000
   3437 O          12.6649   -2.5722   18.4600 O.3     165      M_D    0.0000
   3438 C          13.0152   -2.3570   17.2891 C.3     165      M_D    0.0000
   3439 C          14.3302   -2.1988   17.2188 C.3     165      M_D    0.0000
   3440 H          12.5608   -1.5719   16.9949 H       165      M_D    0.0000
   3441 H          12.7363   -3.0624   16.7077 H       165      M_D    0.0000
   3442 H          14.7784   -3.0386   17.2297 H       165      M_D    0.0000
   3443 H          14.5452   -1.7681   16.3967 H       165      M_D    0.0000
   3444 O          14.8072   -1.4286   18.2311 O.3     166      M_D    0.0000
   3445 C          15.7637   -0.7310   17.8592 C.3     166      M_D    0.0000
   3446 C          16.9111   -1.3569   18.0847 C.3     166      M_D    0.0000
   3447 H          15.7226    0.0906   18.3417 H       166      M_D    0.0000
   3448 H          15.6886   -0.5030   16.9340 H       166      M_D    0.0000
   3449 H          17.5471   -0.7740   18.4872 H       166      M_D    0.0000
   3450 H          16.7561   -2.0762   18.6899 H       166      M_D    0.0000
   3451 O          17.4428   -1.8754   16.9471 O.3     167      M_D    0.0000
   3452 C          18.2377   -2.7953   17.1955 C.3     167      M_D    0.0000
   3453 C          19.4893   -2.3684   17.0942 C.3     167      M_D    0.0000
   3454 H          18.0652   -3.4974   16.5735 H       167      M_D    0.0000
   3455 H          18.0837   -3.1626   18.0643 H       167      M_D    0.0000
   3456 H          19.5523   -1.6260   16.5017 H       167      M_D    0.0000
   3457 H          19.7864   -2.0786   17.9518 H       167      M_D    0.0000
   3458 O          20.3304   -3.3471   16.6695 O.3     168      M_D    0.0000
   3459 C          21.3821   -3.3594   17.3280 C.3     168      M_D    0.0000
   3460 C          22.3251   -2.6596   16.7113 C.3     168      M_D    0.0000
   3461 H          21.6448   -4.2706   17.4296 H       168      M_D    0.0000
   3462 H          21.2436   -3.0201   18.2107 H       168      M_D    0.0000
   3463 H          22.8264   -3.2083   16.1163 H       168      M_D    0.0000
   3464 H          21.9118   -1.9753   16.1931 H       168      M_D    0.0000
   3465 C          23.1753   -2.0640   17.5877 C.2     169      M_B    0.0000
   3466 O          22.6280   -1.5826   18.3572 O.2     169      M_B    0.0000
   3467 C          24.4723   -2.1320   17.4286 C.3     169      M_B    0.0000
   3468 C          24.8395   -1.4249   16.3689 C.3     169      M_B    0.0000
   3469 O          24.9392   -1.6292   18.4598 O.3     169      M_B    0.0000
   3470 H          24.7140   -3.0518   17.3390 H       169      M_B    0.0000
   3471 H          24.4574   -1.7693   15.5686 H       169      M_B    0.0000
   3472 H          24.5713   -0.5147   16.4572 H       169      M_B    0.0000
   3473 H          25.7863   -1.4251   16.2711 H       169      M_B    0.0000
   3474 C          26.0780   -2.0286   18.6861 C.2     170      M_B    0.0000
   3475 O          26.1313   -2.4479   19.6581 O.2     170      M_B    0.0000
   3476 C          27.0272   -1.9166   17.7925 C.3     170      M_B    0.0000
   3477 C          26.9861   -0.7160   17.2315 C.3     170      M_B    0.0000
   3478 O          28.0773   -2.0516   18.4352 O.3     170      M_B    0.0000
   3479 H          26.9124   -2.6111   17.1467 H       170      M_B    0.0000
   3480 H          26.1683   -0.5747   16.7664 H       170      M_B    0.0000
   3481 H          27.0761   -0.0304   17.8872 H       170      M_B    0.0000
   3482 H          27.7026   -0.6038   16.6151 H       170      M_B    0.0000
   3483 O          29.0632   -1.7616   17.7632 O.3     171      M_D    0.0000
   3484 C          28.9851   -2.2298   16.6167 C.3     171      M_D    0.0000
   3485 C          30.0778   -2.9211   16.3214 C.3     171      M_D    0.0000
   3486 H          28.8718   -1.4976   16.0163 H       171      M_D    0.0000
   3487 H          28.2099   -2.7801   16.5181 H       171      M_D    0.0000
   3488 H          30.0312   -3.8045   16.6732 H       171      M_D    0.0000
   3489 H          30.1512   -2.9917   15.3741 H       171      M_D    0.0000
   3490 O          31.2043   -2.3188   16.7838 O.3     172      M_D    0.0000
   3491 C          31.6995   -2.9481   17.7317 C.3     172      M_D    0.0000
   3492 C          32.0929   -2.1165   18.6870 C.3     172      M_D    0.0000
   3493 H          32.4363   -3.4474   17.3891 H       172      M_D    0.0000
   3494 H          31.0828   -3.5875   18.0843 H       172      M_D    0.0000
   3495 H          31.3943   -1.9583   19.3141 H       172      M_D    0.0000
   3496 H          32.8200   -2.5115   19.1593 H       172      M_D    0.0000
   3497 O          32.5170   -0.9269   18.1865 O.3     173      M_D    0.0000
   3498 C          32.5477   -0.9410   16.9461 C.3     173      M_D    0.0000
   3499 C          33.7339   -0.5435   16.5057 C.3     173      M_D    0.0000
   3500 H          31.8568   -0.3609   16.6367 H       173      M_D    0.0000
   3501 H          32.3426   -1.8093   16.6032 H       173      M_D    0.0000
   3502 H          34.1798   -1.2437   16.0396 H       173      M_D    0.0000
   3503 H          33.6102    0.1765   15.8941 H       173      M_D    0.0000
   3504 O          34.5320   -0.1033   17.5131 O.3     174      M_D    0.0000
   3505 C          34.0807   -0.4246   18.6235 C.3     174      M_D    0.0000
   3506 C          34.0901    0.6145   19.4477 C.3     174      M_D    0.0000
   3507 H          34.6255   -1.1316   18.9595 H       174      M_D    0.0000
   3508 H          33.1962   -0.7792   18.5498 H       174      M_D    0.0000
   3509 H          33.8656    1.4184   18.9897 H       174      M_D    0.0000
   3510 H          33.4348    0.4764   20.1253 H       174      M_D    0.0000
   3511 C          35.2940    0.7728   20.0570 C.2     175      M_A    0.0000
   3512 O          35.6506    1.7613   19.9235 O.2     175      M_A    0.0000
   3513 C          35.8510   -0.2160   20.6930 C.3     175      M_A    0.0000
   3514 O          36.8411    0.2507   21.2587 O.3     175      M_A    0.0000
   3515 H          36.1033   -0.8842   20.0612 H       175      M_A    0.0000
   3516 H          35.2287   -0.5628   21.3268 H       175      M_A    0.0000
   3517 C          37.8382    0.1164   20.5568 C.2     176      M_B    0.0000
   3518 O          38.2101    1.0651   20.2656 O.2     176      M_B    0.0000
   3519 C          38.3088   -1.0693   20.2652 C.3     176      M_B    0.0000
   3520 C          37.7842   -1.5009   19.1267 C.3     176      M_B    0.0000
   3521 O          39.5284   -0.8966   20.1347 O.3     176      M_B    0.0000
   3522 H          38.1073   -1.6569   20.9908 H       176      M_B    0.0000
   3523 H          36.8403   -1.6007   19.1917 H       176      M_B    0.0000
   3524 H          37.9694   -0.8949   18.4150 H       176      M_B    0.0000
   3525 H          38.1561   -2.3409   18.8775 H       176      M_B    0.0000
   3526 O          40.1621   -1.9194   20.3793 O.3     177      M_D    0.0000
   3527 C          40.2617   -2.6428   19.3761 C.3     177      M_D    0.0000
   3528 C          39.6121   -3.7845   19.5596 C.3     177      M_D    0.0000
   3529 H          41.1908   -2.7990   19.2278 H       177      M_D    0.0000
   3530 H          39.9359   -2.1998   18.5944 H       177      M_D    0.0000
   3531 H          40.1964   -4.4649   19.8787 H       177      M_D    0.0000
   3532 H          38.9368   -3.6523   20.2185 H       177      M_D    0.0000
   3533 C          39.0073   -4.2170   18.4226 C.2     178      M_A    0.0000
   3534 O          38.9977   -3.4498   17.6922 O.2     178      M_A    0.0000
   3535 C          38.5363   -5.4269   18.3405 C.3     178      M_A    0.0000
   3536 O          38.4294   -5.6755   17.1384 O.2     178      M_A    0.0000
   3537 H          37.6858   -5.4552   18.7708 H       178      M_A    0.0000
   3538 H          39.1506   -6.0246   18.7583 H       178      M_A    0.0000
   3539 C          10.1615    1.7888   86.7541 C.1     179      M_A    0.0000
   3540 O          10.1856    2.7981   86.2026 O.2     179      M_A    0.0000
   3541 C          11.2437    0.9902   87.1871 C.3     179      M_A    0.0000
   3542 O          11.8180    0.5043   86.0805 O.3     179      M_A    0.0000
   3543 H          10.8768    0.2245   87.7799 H       179      M_A    0.0000
   3544 H          11.9058    1.5847   87.7167 H       179      M_A    0.0000
   3545 O          12.1569   -0.7723   86.2548 O.3     180      M_D    0.0000
   3546 C          12.8889   -0.9400   87.3737 C.3     180      M_D    0.0000
   3547 C          14.2674   -0.6002   87.1310 C.3     180      M_D    0.0000
   3548 H          12.7963   -1.9313   87.6593 H       180      M_D    0.0000
   3549 H          12.5134   -0.3743   88.1588 H       180      M_D    0.0000
   3550 H          14.9030   -1.2101   87.6723 H       180      M_D    0.0000
   3551 H          14.4757   -0.7433   86.1277 H       180      M_D    0.0000
   3552 O          14.5578    0.8088   87.4581 O.3     181      M_D    0.0000
   3553 C          13.6822    1.6436   86.8643 C.3     181      M_D    0.0000
   3554 C          14.3402    2.4286   85.8516 C.3     181      M_D    0.0000
   3555 H          13.2830    2.2505   87.6025 H       181      M_D    0.0000
   3556 H          12.8845    1.1230   86.4521 H       181      M_D    0.0000
   3557 H          14.8295    1.8242   85.1703 H       181      M_D    0.0000
   3558 H          13.6278    2.9712   85.3334 H       181      M_D    0.0000
   3559 O          15.3059    3.3828   86.4291 O.3     182      M_D    0.0000
   3560 C          15.3682    4.5192   85.7074 C.3     182      M_D    0.0000
   3561 C          16.6188    4.5984   84.9972 C.3     182      M_D    0.0000
   3562 H          15.2656    5.3113   86.3668 H       182      M_D    0.0000
   3563 H          14.5738    4.5883   85.0430 H       182      M_D    0.0000
   3564 H          16.5874    4.0462   84.1237 H       182      M_D    0.0000
   3565 H          16.7944    5.5845   84.7378 H       182      M_D    0.0000
   3566 O          17.7539    4.1362   85.8185 O.3     183      M_D    0.0000
   3567 C          18.8120    4.9633   85.7075 C.3     183      M_D    0.0000
   3568 C          19.8050    4.3981   84.8305 C.3     183      M_D    0.0000
   3569 H          19.1957    5.1054   86.6590 H       183      M_D    0.0000
   3570 H          18.5245    5.9005   85.3664 H       183      M_D    0.0000
   3571 H          19.8358    3.3682   84.9162 H       183      M_D    0.0000
   3572 H          19.5546    4.6233   83.8522 H       183      M_D    0.0000
   3573 C          21.1509    4.9434   85.0912 C.2     184      M_B    0.0000
   3574 O          21.6176    4.4259   86.0073 O.2     184      M_B    0.0000
   3575 C          21.7081    5.9582   84.2670 C.3     184      M_B    0.0000
   3576 C          20.9372    7.1688   84.3825 C.3     184      M_B    0.0000
   3577 O          22.9465    6.1489   84.7563 O.3     184      M_B    0.0000
   3578 H          21.7268    5.6085   83.2905 H       184      M_B    0.0000
   3579 H          19.9667    7.0344   84.0544 H       184      M_B    0.0000
   3580 H          20.9025    7.4930   85.3647 H       184      M_B    0.0000
   3581 H          21.3626    7.9319   83.8301 H       184      M_B    0.0000
   3582 C          23.6755    6.9359   83.9642 C.2     185      M_B    0.0000
   3583 O          23.0071    7.7365   83.4772 O.2     185      M_B    0.0000
   3584 C          25.0746    6.7379   83.8133 C.3     185      M_B    0.0000
   3585 C          25.3270    5.5197   83.0885 C.3     185      M_B    0.0000
   3586 O          25.4907    7.7979   83.0974 O.3     185      M_B    0.0000
   3587 H          25.5024    6.7163   84.7581 H       185      M_B    0.0000
   3588 H          24.9745    4.6934   83.5989 H       185      M_B    0.0000
   3589 H          24.8727    5.5414   82.1590 H       185      M_B    0.0000
   3590 H          26.3394    5.3906   82.9240 H       185      M_B    0.0000
   3591 O          26.7743    7.6891   82.7529 O.3     186      M_D    0.0000
   3592 C          27.5507    7.4211   83.8214 C.3     186      M_D    0.0000
   3593 C          28.7216    8.2600   83.8178 C.3     186      M_D    0.0000
   3594 H          27.8118    6.4201   83.7717 H       186      M_D    0.0000
   3595 H          27.0262    7.5418   84.7089 H       186      M_D    0.0000
   3596 H          28.5324    9.1668   84.2771 H       186      M_D    0.0000
   3597 H          29.4722    7.7893   84.3522 H       186      M_D    0.0000
   3598 O          29.2233    8.5073   82.4526 O.3     187      M_D    0.0000
   3599 C          30.5639    8.3853   82.3901 C.3     187      M_D    0.0000
   3600 C          31.1961    9.6684   82.5594 C.3     187      M_D    0.0000
   3601 H          30.7954    7.9770   81.4669 H       187      M_D    0.0000
   3602 H          30.9156    7.7160   83.1013 H       187      M_D    0.0000
   3603 H          30.7653   10.3805   81.9460 H       187      M_D    0.0000
   3604 H          31.0668    9.9787   83.5379 H       187      M_D    0.0000
   3605 O          32.6454    9.6132   82.2887 O.3     188      M_D    0.0000
   3606 C          33.3379   10.3831   83.1511 C.3     188      M_D    0.0000
   3607 C          34.5500    9.7201   83.5586 C.3     188      M_D    0.0000
   3608 H          32.7241   10.5663   83.9650 H       188      M_D    0.0000
   3609 H          33.5578   11.3093   82.7375 H       188      M_D    0.0000
   3610 H          35.2566   10.4012   83.8840 H       188      M_D    0.0000
   3611 H          34.3363    9.0888   84.3500 H       188      M_D    0.0000
   3612 O          35.1298    8.9065   82.4730 O.3     189      M_D    0.0000
   3613 C          34.1761    8.4397   81.6432 C.3     189      M_D    0.0000
   3614 C          34.1984    7.0000   81.6073 C.3     189      M_D    0.0000
   3615 H          34.3603    8.8367   80.7045 H       189      M_D    0.0000
   3616 H          33.2349    8.7766   81.9225 H       189      M_D    0.0000
   3617 H          33.3528    6.6025   82.0500 H       189      M_D    0.0000
   3618 H          34.2101    6.6899   80.6203 H       189      M_D    0.0000
   3619 C          35.3944    6.4466   82.2708 C.2     190      M_A    0.0000
   3620 O          35.3542    5.2970   82.2812 O.2     190      M_A    0.0000
   3621 C          36.3927    7.3025   82.7877 C.3     190      M_A    0.0000
   3622 O          36.8820    6.6950   83.8749 O.3     190      M_A    0.0000
   3623 H          35.9588    8.2097   83.0349 H       190      M_A    0.0000
   3624 H          37.1294    7.4267   82.0706 H       190      M_A    0.0000
   3625 C          36.9452    7.5488   84.8957 C.2     191      M_B    0.0000
   3626 O          36.4865    7.0740   85.8385 O.2     191      M_B    0.0000
   3627 C          37.5220    8.8386   84.7439 C.3     191      M_B    0.0000
   3628 C          36.6049    9.7142   84.0618 C.3     191      M_B    0.0000
   3629 O          37.7242    9.2687   86.0023 O.2     191      M_B    0.0000
   3630 H          38.4125    8.7358   84.2217 H       191      M_B    0.0000
   3631 H          36.3983    9.3790   83.1065 H       191      M_B    0.0000
   3632 H          35.7106    9.7874   84.5773 H       191      M_B    0.0000
   3633 H          36.9898   10.6711   83.9925 H       191      M_B    0.0000
   3634 C          -0.0496  -12.4632   21.3919 C.1     192      M_A    0.0000
   3635 O           0.8295  -12.9258   21.9850 O.2     192      M_A    0.0000
   3636 C          -1.1164  -13.1212   20.7228 C.3     192      M_A    0.0000
   3637 O          -0.8486  -14.4383   20.7890 O.3     192      M_A    0.0000
   3638 H          -1.1429  -12.7965   19.7336 H       192      M_A    0.0000
   3639 H          -2.0079  -12.8981   21.2127 H       192      M_A    0.0000
   3640 O           0.4655  -14.6560   20.6441 O.3     193      M_D    0.0000
   3641 C           0.7110  -15.8877   20.1348 C.3     193      M_D    0.0000
   3642 C           1.0471  -16.8173   21.1937 C.3     193      M_D    0.0000
   3643 H           1.4968  -15.7942   19.4576 H       193      M_D    0.0000
   3644 H          -0.1052  -16.2426   19.5895 H       193      M_D    0.0000
   3645 H           2.0769  -16.8867   21.3193 H       193      M_D    0.0000
   3646 H           0.6439  -16.4694   22.0876 H       193      M_D    0.0000
   3647 O           0.4977  -18.1724   20.9422 O.3     194      M_D    0.0000
   3648 C           1.4785  -19.0568   20.6382 C.3     194      M_D    0.0000
   3649 C           0.9105  -20.3020   20.1638 C.3     194      M_D    0.0000
   3650 H           2.0403  -19.2086   21.5021 H       194      M_D    0.0000
   3651 H           2.1348  -18.6660   19.9267 H       194      M_D    0.0000
   3652 H           0.3606  -20.1561   19.2935 H       194      M_D    0.0000
   3653 H           1.6838  -20.9613   19.9406 H       194      M_D    0.0000
   3654 O           0.0434  -20.9439   21.1824 O.3     195      M_D    0.0000
   3655 C           0.2796  -22.2758   21.2666 C.3     195      M_D    0.0000
   3656 C          -0.9281  -23.0244   20.9852 C.3     195      M_D    0.0000
   3657 H           0.6233  -22.4713   22.2302 H       195      M_D    0.0000
   3658 H           1.0437  -22.5675   20.6181 H       195      M_D    0.0000
   3659 H          -1.7762  -22.4703   21.2191 H       195      M_D    0.0000
   3660 H          -0.9625  -23.2377   19.9674 H       195      M_D    0.0000
   3661 O          -0.9719  -24.3112   21.7227 O.3     196      M_D    0.0000
   3662 C           0.2729  -24.8007   21.9405 C.3     196      M_D    0.0000
   3663 C           0.5145  -25.9622   21.1093 C.3     196      M_D    0.0000
   3664 H           0.3396  -25.0450   22.9508 H       196      M_D    0.0000
   3665 H           1.0023  -24.0746   21.7658 H       196      M_D    0.0000
   3666 H           0.1865  -25.8018   20.1358 H       196      M_D    0.0000
   3667 H           1.5387  -26.1413   21.0708 H       196      M_D    0.0000
   3668 C          -0.1416  -27.1796   21.6469 C.2     197      M_B    0.0000
   3669 O          -0.8365  -26.9011   22.5297 O.2     197      M_B    0.0000
   3670 C           0.1088  -28.4681   21.0818 C.3     197      M_B    0.0000
   3671 C           1.5344  -28.7100   21.0055 C.3     197      M_B    0.0000
   3672 O          -0.4655  -29.3358   21.9462 O.3     197      M_B    0.0000
   3673 H          -0.3381  -28.5032   20.1398 H       197      M_B    0.0000
   3674 H           2.0056  -28.0257   20.3816 H       197      M_B    0.0000
   3675 H           1.9737  -28.6452   21.9468 H       197      M_B    0.0000
   3676 H           1.7305  -29.6659   20.6469 H       197      M_B    0.0000
   3677 C          -0.7398  -30.5115   21.3624 C.2     198      M_B    0.0000
   3678 O          -1.6626  -30.4077   20.6714 O.2     198      M_B    0.0000
   3679 C           0.0576  -31.6699   21.6166 C.3     198      M_B    0.0000
   3680 C           0.3145  -31.7961   23.0360 C.3     198      M_B    0.0000
   3681 O          -0.6995  -32.7049   21.1862 O.3     198      M_B    0.0000
   3682 H           0.9431  -31.5818   21.0719 H       198      M_B    0.0000
   3683 H           0.8569  -30.9879   23.3998 H       198      M_B    0.0000
   3684 H          -0.5759  -31.8552   23.5714 H       198      M_B    0.0000
   3685 H           0.8477  -32.6645   23.2414 H       198      M_B    0.0000
   3686 O           0.0163  -33.8337   21.0778 O.3     199      M_D    0.0000
   3687 C           0.9398  -33.7425   20.0901 C.3     199      M_D    0.0000
   3688 C           1.2112  -35.0489   19.5264 C.3     199      M_D    0.0000
   3689 H           1.8010  -33.3295   20.5055 H       199      M_D    0.0000
   3690 H           0.6309  -33.0841   19.3412 H       199      M_D    0.0000
   3691 H           0.9904  -35.0727   18.5107 H       199      M_D    0.0000
   3692 H           2.2251  -35.2574   19.6330 H       199      M_D    0.0000
   3693 O           0.4503  -36.1221   20.2126 O.3     200      M_D    0.0000
   3694 C          -0.7682  -36.3047   19.6482 C.3     200      M_D    0.0000
   3695 C          -1.7765  -35.5468   20.3604 C.3     200      M_D    0.0000
   3696 H          -0.9770  -37.3247   19.6800 H       200      M_D    0.0000
   3697 H          -0.7630  -36.0380   18.6390 H       200      M_D    0.0000
   3698 H          -1.7927  -34.5558   20.0461 H       200      M_D    0.0000
   3699 H          -2.7112  -35.9565   20.1577 H       200      M_D    0.0000
   3700 O          -1.5702  -35.5855   21.8292 O.3     201      M_D    0.0000
   3701 C          -0.2525  -35.5690   22.1456 C.3     201      M_D    0.0000
   3702 C           0.0680  -36.6600   23.0430 C.3     201      M_D    0.0000
   3703 H          -0.0501  -34.6491   22.5902 H       201      M_D    0.0000
   3704 H           0.3439  -35.6189   21.2904 H       201      M_D    0.0000
   3705 H           0.7056  -37.3444   22.5890 H       201      M_D    0.0000
   3706 H           0.5594  -36.2771   23.8764 H       201      M_D    0.0000
   3707 O          -1.1465  -37.3694   23.5155 O.3     202      M_D    0.0000
   3708 C          -2.1872  -37.1912   22.6659 C.3     202      M_D    0.0000
   3709 C          -3.3834  -36.8276   23.3973 C.3     202      M_D    0.0000
   3710 H          -2.3239  -38.0848   22.1485 H       202      M_D    0.0000
   3711 H          -1.9703  -36.4664   21.9467 H       202      M_D    0.0000
   3712 H          -4.0259  -36.2610   22.8080 H       202      M_D    0.0000
   3713 H          -3.8888  -37.6956   23.6689 H       202      M_D    0.0000
   3714 C          -3.0724  -36.0740   24.6370 C.2     203      M_A    0.0000
   3715 O          -3.8905  -36.2516   25.4356 O.2     203      M_A    0.0000
   3716 C          -1.9020  -35.2732   24.7239 C.3     203      M_A    0.0000
   3717 O          -2.0359  -34.5283   25.8366 O.3     203      M_A    0.0000
   3718 H          -1.8449  -34.6696   23.8772 H       203      M_A    0.0000
   3719 H          -1.0721  -35.8986   24.7929 H       203      M_A    0.0000
   3720 C          -0.8330  -34.2013   26.3279 C.2     204      M_B    0.0000
   3721 O          -0.8868  -34.1006   27.4798 O.2     204      M_B    0.0000
   3722 C           0.2970  -34.0298   25.4700 C.3     204      M_B    0.0000
   3723 C           0.0782  -32.9126   24.5753 C.3     204      M_B    0.0000
   3724 O           1.3232  -33.7607   26.3093 O.3     204      M_B    0.0000
   3725 H           0.4457  -34.9192   24.9454 H       204      M_B    0.0000
   3726 H          -0.7354  -33.0770   23.9502 H       204      M_B    0.0000
   3727 H          -0.0964  -32.0368   25.1096 H       204      M_B    0.0000
   3728 H           0.9148  -32.7420   23.9823 H       204      M_B    0.0000
   3729 O           1.7819  -34.8704   26.9062 O.3     205      M_D    0.0000
   3730 C           0.7836  -35.7566   27.1402 C.3     205      M_D    0.0000
   3731 C           1.3218  -37.0127   27.6206 C.3     205      M_D    0.0000
   3732 H           0.2687  -35.8899   26.2447 H       205      M_D    0.0000
   3733 H           0.0912  -35.3768   27.8228 H       205      M_D    0.0000
   3734 H           2.1734  -36.8601   28.1974 H       205      M_D    0.0000
   3735 H           0.6113  -37.4743   28.2246 H       205      M_D    0.0000
   3736 C           1.6492  -37.9409   26.5103 C.2     206      M_A    0.0000
   3737 O           2.7726  -37.8726   26.2425 O.2     206      M_A    0.0000
   3738 C           0.6428  -38.7574   25.9277 C.3     206      M_A    0.0000
   3739 O           1.2746  -39.8330   25.4230 O.3     206      M_A    0.0000
   3740 H           0.1677  -38.2179   25.1743 H       206      M_A    0.0000
   3741 H          -0.0329  -39.0372   26.6692 H       206      M_A    0.0000
   3742 O           1.4852  -39.6776   24.1089 O.3     207      M_D    0.0000
   3743 C           1.4058  -40.8596   23.4507 C.3     207      M_D    0.0000
   3744 C           2.7236  -41.3059   23.0476 C.3     207      M_D    0.0000
   3745 H           0.7918  -40.7144   22.6219 H       207      M_D    0.0000
   3746 H           0.9414  -41.5892   24.0352 H       207      M_D    0.0000
   3747 H           3.3516  -41.4119   23.8695 H       207      M_D    0.0000
   3748 H           2.6389  -42.2385   22.5940 H       207      M_D    0.0000
   3749 C           3.3529  -40.3803   22.0736 C.2     208      M_A    0.0000
   3750 O           4.4380  -40.7093   21.8443 O.2     208      M_A    0.0000
   3751 C           2.6302  -39.2717   21.5563 C.3     208      M_A    0.0000
   3752 O           3.4292  -38.6945   20.6401 O.2     208      M_A    0.0000
   3753 H           2.4226  -38.6133   22.3360 H       208      M_A    0.0000
   3754 H           1.7520  -39.6191   21.1175 H       208      M_A    0.0000
   3755 C           1.1884   10.3947   48.6757 C.1     209      M_A    0.0000
   3756 O           1.4251   10.6744   49.7887 O.2     209      M_A    0.0000
   3757 C           1.0473   11.2640   47.5376 C.3     209      M_A    0.0000
   3758 O          -0.1681   11.8674   47.6657 O.3     209      M_A    0.0000
   3759 H           1.0880   10.6822   46.6587 H       209      M_A    0.0000
   3760 H           1.8250   11.9762   47.5557 H       209      M_A    0.0000
   3761 O          -0.7668   11.9884   46.4539 O.3     210      M_D    0.0000
   3762 C           0.0789   12.5490   45.5294 C.3     210      M_D    0.0000
   3763 C           0.1496   14.0030   45.7121 C.3     210      M_D    0.0000
   3764 H          -0.2935   12.3064   44.5727 H       210      M_D    0.0000
   3765 H           1.0463   12.1265   45.5874 H       210      M_D    0.0000
   3766 H           0.1773   14.5016   44.7850 H       210      M_D    0.0000
   3767 H          -0.7150   14.3250   46.2214 H       210      M_D    0.0000
   3768 O           1.3447   14.4133   46.5255 O.3     211      M_D    0.0000
   3769 C           1.0133   15.3587   47.4638 C.3     211      M_D    0.0000
   3770 C           2.0883   16.3479   47.5992 C.3     211      M_D    0.0000
   3771 H           0.8473   14.8544   48.3754 H       211      M_D    0.0000
   3772 H           0.1036   15.8394   47.2205 H       211      M_D    0.0000
   3773 H           2.9736   15.9010   47.9533 H       211      M_D    0.0000
   3774 H           2.2956   16.7582   46.6509 H       211      M_D    0.0000
   3775 O           1.7071   17.4752   48.5170 O.3     212      M_D    0.0000
   3776 C           2.2507   18.6657   48.1032 C.3     212      M_D    0.0000
   3777 C           2.8907   19.3573   49.2276 C.3     212      M_D    0.0000
   3778 H           1.4684   19.2465   47.6987 H       212      M_D    0.0000
   3779 H           2.9467   18.5193   47.3210 H       212      M_D    0.0000
   3780 H           2.5005   19.0276   50.1485 H       212      M_D    0.0000
   3781 H           3.9214   19.1373   49.2211 H       212      M_D    0.0000
   3782 O           2.7362   20.8493   49.1357 O.3     213      M_D    0.0000
   3783 C           3.8286   21.5003   49.6522 C.3     213      M_D    0.0000
   3784 C           3.4710   22.8648   50.0557 C.3     213      M_D    0.0000
   3785 H           4.5729   21.5106   48.9046 H       213      M_D    0.0000
   3786 H           4.2384   20.9730   50.4718 H       213      M_D    0.0000
   3787 H           2.7157   22.8585   50.7895 H       213      M_D    0.0000
   3788 H           4.3188   23.3296   50.4750 H       213      M_D    0.0000
   3789 C           3.0160   23.6980   48.8908 C.2     214      M_B    0.0000
   3790 O           2.4273   23.0338   48.1248 O.2     214      M_B    0.0000
   3791 C           3.3078   25.1140   48.8204 C.3     214      M_B    0.0000
   3792 C           3.6614   25.4886   47.4473 C.3     214      M_B    0.0000
   3793 O           2.1386   25.7252   49.1902 O.3     214      M_B    0.0000
   3794 H           4.0932   25.3231   49.4956 H       214      M_B    0.0000
   3795 H           4.5326   24.9951   47.1233 H       214      M_B    0.0000
   3796 H           2.8821   25.2498   46.7790 H       214      M_B    0.0000
   3797 H           3.8225   26.5262   47.3698 H       214      M_B    0.0000
   3798 C           2.3493   26.6998   50.1124 C.2     215      M_B    0.0000
   3799 O           1.7203   26.4847   51.0780 O.2     215      M_B    0.0000
   3800 C           3.2479   27.8032   49.8476 C.3     215      M_B    0.0000
   3801 C           3.2310   28.1359   48.4193 C.3     215      M_B    0.0000
   3802 O           2.7408   28.8438   50.5806 O.3     215      M_B    0.0000
   3803 H           4.2148   27.5264   50.1716 H       215      M_B    0.0000
   3804 H           3.5733   27.3336   47.8306 H       215      M_B    0.0000
   3805 H           2.2569   28.3831   48.1015 H       215      M_B    0.0000
   3806 H           3.8382   28.9729   48.2206 H       215      M_B    0.0000
   3807 O           3.6942   29.7660   50.8728 O.3     216      M_D    0.0000
   3808 C           3.2730   31.0370   50.5708 C.3     216      M_D    0.0000
   3809 C           4.4160   31.8890   50.2246 C.3     216      M_D    0.0000
   3810 H           2.7659   31.4111   51.4169 H       216      M_D    0.0000
   3811 H           2.5696   31.0316   49.7815 H       216      M_D    0.0000
   3812 H           5.2848   31.5861   50.7369 H       216      M_D    0.0000
   3813 H           4.6074   31.7997   49.1921 H       216      M_D    0.0000
   3814 O           4.1517   33.3382   50.5218 O.3     217      M_D    0.0000
   3815 C           4.7539   34.1580   49.6003 C.3     217      M_D    0.0000
   3816 C           4.2198   35.5210   49.6977 C.3     217      M_D    0.0000
   3817 H           4.5708   33.7482   48.6456 H       217      M_D    0.0000
   3818 H           5.8040   34.1680   49.7227 H       217      M_D    0.0000
   3819 H           4.8595   36.2143   49.2296 H       217      M_D    0.0000
   3820 H           3.2907   35.5593   49.2018 H       217      M_D    0.0000
   3821 O           4.0001   35.9417   51.1236 O.3     218      M_D    0.0000
   3822 C           5.0818   36.6274   51.6175 C.3     218      M_D    0.0000
   3823 C           5.5982   35.9729   52.8247 C.3     218      M_D    0.0000
   3824 H           4.7630   37.6107   51.8281 H       218      M_D    0.0000
   3825 H           5.8468   36.7121   50.8927 H       218      M_D    0.0000
   3826 H           6.6141   36.2041   52.9774 H       218      M_D    0.0000
   3827 H           5.0618   36.3266   53.6601 H       218      M_D    0.0000
   3828 O           5.4378   34.4797   52.7710 O.3     219      M_D    0.0000
   3829 C           4.2732   34.1219   52.1389 C.3     219      M_D    0.0000
   3830 C           3.1097   34.5412   52.9282 C.3     219      M_D    0.0000
   3831 H           4.2889   33.0741   52.0171 H       219      M_D    0.0000
   3832 H           4.2216   34.5330   51.1662 H       219      M_D    0.0000
   3833 H           2.7704   33.7612   53.5490 H       219      M_D    0.0000
   3834 H           3.3912   35.3441   53.5501 H       219      M_D    0.0000
   3835 C           1.9747   35.0056   52.0595 C.2     220      M_A    0.0000
   3836 O           1.3696   34.0895   51.6499 O.2     220      M_A    0.0000
   3837 C           1.7530   36.4087   51.8294 C.3     220      M_A    0.0000
   3838 O           0.4879   36.5199   51.3347 O.3     220      M_A    0.0000
   3839 H           2.4626   36.7545   51.1298 H       220      M_A    0.0000
   3840 H           1.8451   36.9220   52.7463 H       220      M_A    0.0000
   3841 C           0.5160   37.0022   50.0666 C.2     221      M_B    0.0000
   3842 O          -0.0106   36.2507   49.3370 O.2     221      M_B    0.0000
   3843 C           1.1277   38.2781   49.7615 C.3     221      M_B    0.0000
   3844 C           2.2998   38.4929   50.6162 C.3     221      M_B    0.0000
   3845 O           1.5125   38.1708   48.4509 O.3     221      M_B    0.0000
   3846 H           0.4017   39.0334   49.8991 H       221      M_B    0.0000
   3847 H           2.0350   38.5326   51.6340 H       221      M_B    0.0000
   3848 H           3.0043   37.7189   50.4912 H       221      M_B    0.0000
   3849 H           2.7874   39.3923   50.3674 H       221      M_B    0.0000
   3850 O           2.8526   37.9839   48.3329 O.3     222      M_D    0.0000
   3851 C           3.5412   39.1577   48.5118 C.3     222      M_D    0.0000
   3852 C           4.2472   39.5325   47.2815 C.3     222      M_D    0.0000
   3853 H           4.2197   39.0080   49.3057 H       222      M_D    0.0000
   3854 H           2.8969   39.9390   48.8153 H       222      M_D    0.0000
   3855 H           3.8497   39.0286   46.4466 H       222      M_D    0.0000
   3856 H           4.1229   40.5663   47.1187 H       222      M_D    0.0000
   3857 C           5.7210   39.2521   47.3675 C.2     223      M_A    0.0000
   3858 O           6.3333   40.1141   46.8623 O.2     223      M_A    0.0000
   3859 C           6.2048   38.0565   48.0058 C.3     223      M_A    0.0000
   3860 O           7.5645   38.1026   47.9239 O.2     223      M_A    0.0000
   3861 H           5.8247   37.2186   47.4901 H       223      M_A    0.0000
   3862 H           5.8880   38.0567   49.0119 H       223      M_A    0.0000
   3863 C           1.9602   10.2411   86.1166 C.1     224      M_A    0.0000
   3864 O           2.3626   10.4768   87.0679 O.2     224      M_A    0.0000
   3865 C           1.9012   10.9831   85.0494 C.3     224      M_A    0.0000
   3866 O           1.0343   11.8317   85.2658 O.3     224      M_A    0.0000
   3867 H           1.6627   10.4344   84.3067 H       224      M_A    0.0000
   3868 H           2.7517   11.3924   84.9126 H       224      M_A    0.0000
   3869 O           0.3530   12.0134   84.2616 O.3     225      M_D    0.0000
   3870 C           1.0604   12.2465   83.2689 C.3     225      M_D    0.0000
   3871 C           1.4796   13.5050   83.2817 C.3     225      M_D    0.0000
   3872 H           0.5323   12.0706   82.4943 H       225      M_D    0.0000
   3873 H           1.8065   11.6506   83.2260 H       225      M_D    0.0000
   3874 H           2.1809   13.6400   82.6520 H       225      M_D    0.0000
   3875 H           0.7563   14.0734   83.0338 H       225      M_D    0.0000
   3876 O           1.9092   13.8882   84.5125 O.3     226      M_D    0.0000
   3877 C           2.9698   14.5291   84.4442 C.3     226      M_D    0.0000
   3878 C           3.5998   14.5114   85.6114 C.3     226      M_D    0.0000
   3879 H           2.7484   15.4212   84.1893 H       226      M_D    0.0000
   3880 H           3.5391   14.1870   83.7568 H       226      M_D    0.0000
   3881 H           3.0104   14.7391   86.3236 H       226      M_D    0.0000
   3882 H           3.9217   13.6295   85.7746 H       226      M_D    0.0000
   3883 O           4.6648   15.3550   85.6304 O.3     227      M_D    0.0000
   3884 C           4.4987   16.2780   86.4433 C.3     227      M_D    0.0000
   3885 C           4.8362   17.4409   85.9018 C.3     227      M_D    0.0000
   3886 H           5.0386   16.0872   87.2062 H       227      M_D    0.0000
   3887 H           3.5955   16.3087   86.7546 H       227      M_D    0.0000
   3888 H           4.0909   17.8494   85.4726 H       227      M_D    0.0000
   3889 H           5.1291   18.0289   86.5921 H       227      M_D    0.0000
   3890 O           5.8487   17.3126   85.0049 O.3     228      M_D    0.0000
   3891 C           6.7002   18.2037   85.1505 C.3     228      M_D    0.0000
   3892 C           6.4382   19.2318   84.3543 C.3     228      M_D    0.0000
   3893 H           7.5504   17.8223   84.9468 H       228      M_D    0.0000
   3894 H           6.7472   18.4943   86.0599 H       228      M_D    0.0000
   3895 H           6.9198   19.1640   83.5357 H       228      M_D    0.0000
   3896 H           5.5091   19.2292   84.1430 H       228      M_D    0.0000
   3897 C           6.7294   20.4214   84.9427 C.2     229      M_B    0.0000
   3898 O           6.0458   20.6169   85.7288 O.2     229      M_B    0.0000
   3899 C           7.7348   21.1531   84.5345 C.3     229      M_B    0.0000
   3900 C           7.7207   21.2505   83.2122 C.3     229      M_B    0.0000
   3901 O           7.5392   22.2641   85.0464 O.3     229      M_B    0.0000
   3902 H           8.5428   20.7523   84.8494 H       229      M_B    0.0000
   3903 H           7.8275   20.4009   82.7972 H       229      M_B    0.0000
   3904 H           6.9005   21.6280   82.9071 H       229      M_B    0.0000
   3905 H           8.4179   21.8216   82.9055 H       229      M_B    0.0000
   3906 C           7.6639   23.1711   84.2279 C.2     230      M_B    0.0000
   3907 O           7.2907   22.8651   83.2842 O.2     230      M_B    0.0000
   3908 C           8.1892   24.3218   84.5639 C.3     230      M_B    0.0000
   3909 C           9.2754   24.5559   83.8404 C.3     230      M_B    0.0000
   3910 O           7.3114   25.1543   84.2976 O.3     230      M_B    0.0000
   3911 H           8.3869   24.2981   85.4983 H       230      M_B    0.0000
   3912 H           9.9490   23.9026   83.9983 H       230      M_B    0.0000
   3913 H           9.0720   24.5523   82.9093 H       230      M_B    0.0000
   3914 H           9.6390   25.4128   84.0398 H       230      M_B    0.0000
   3915 O           7.5502   26.2465   84.8056 O.3     231      M_D    0.0000
   3916 C           7.4805   26.1967   86.0436 C.3     231      M_D    0.0000
   3917 C           7.8781   27.3436   86.5784 C.3     231      M_D    0.0000
   3918 H           8.0341   25.4755   86.3321 H       231      M_D    0.0000
   3919 H           6.5941   25.9872   86.3337 H       231      M_D    0.0000
   3920 H           7.2152   28.0192   86.4749 H       231      M_D    0.0000
   3921 H           8.0166   27.2165   87.5126 H       231      M_D    0.0000
   3922 O           9.0456   27.7817   86.0388 O.3     232      M_D    0.0000
   3923 C           9.7471   28.3610   86.8830 C.3     232      M_D    0.0000
   3924 C           9.9974   29.6071   86.5035 C.3     232      M_D    0.0000
   3925 H          10.5554   27.8627   86.9730 H       232      M_D    0.0000
   3926 H           9.3310   28.3554   87.7435 H       232      M_D    0.0000
   3927 H           9.3817   29.8935   85.8361 H       232      M_D    0.0000
   3928 H           9.8969   30.1843   87.2550 H       232      M_D    0.0000
   3929 O          11.2630   29.7532   86.0310 O.3     233      M_D    0.0000
   3930 C          11.5951   30.9481   85.9836 C.3     233      M_D    0.0000
   3931 C          12.8886   31.0609   85.7122 C.3     233      M_D    0.0000
   3932 H          11.3890   31.3355   86.8305 H       233      M_D    0.0000
   3933 H          11.0792   31.4269   85.3368 H       233      M_D    0.0000
   3934 H          13.0904   31.9183   85.3508 H       233      M_D    0.0000
   3935 H          13.3828   30.9655   86.5212 H       233      M_D    0.0000
   3936 O          13.3148   30.1037   84.8471 O.3     234      M_D    0.0000
   3937 C          13.4396   30.5537   83.6972 C.3     234      M_D    0.0000
   3938 C          12.3289   30.3593   82.9986 C.3     234      M_D    0.0000
   3939 H          14.1792   30.1061   83.2941 H       234      M_D    0.0000
   3940 H          13.6630   31.4831   83.7100 H       234      M_D    0.0000
   3941 H          12.3794   29.5564   82.4893 H       234      M_D    0.0000
   3942 H          11.5966   30.2724   83.6019 H       234      M_D    0.0000
   3943 C          12.0617   31.3976   82.1639 C.2     235      M_A    0.0000
   3944 O          12.2565   31.1257   81.1587 O.2     235      M_A    0.0000
   3945 C          11.6289   32.5316   82.6327 C.3     235      M_A    0.0000
   3946 O          10.5298   32.7250   82.1101 O.3     235      M_A    0.0000
   3947 H          12.2455   33.2185   82.3928 H       235      M_A    0.0000
   3948 H          11.5477   32.4612   83.5803 H       235      M_A    0.0000
   3949 C          10.2487   33.9191   82.1336 C.2     236      M_B    0.0000
   3950 O           9.7648   34.1980   81.2327 O.2     236      M_B    0.0000
   3951 C          10.5383   34.6649   83.1693 C.3     236      M_B    0.0000
   3952 C          11.5314   35.4919   82.8725 C.3     236      M_B    0.0000
   3953 O           9.5014   35.3054   83.3913 O.3     236      M_B    0.0000
   3954 H          10.7650   34.0894   83.8973 H       236      M_B    0.0000
   3955 H          12.3285   35.0190   82.6572 H       236      M_B    0.0000
   3956 H          11.3046   36.0437   82.1293 H       236      M_B    0.0000
   3957 H          11.7184   36.0746   83.6017 H       236      M_B    0.0000
   3958 O           9.7299   36.5015   83.5502 O.3     237      M_D    0.0000
   3959 C          10.5905   36.6872   84.4249 C.3     237      M_D    0.0000
   3960 C          10.1300   37.5021   85.3648 C.2     237      M_D    0.0000
   3961 H          11.3574   37.0590   83.9966 H       237      M_D    0.0000
   3962 H          10.8744   35.8616   84.8142 H       237      M_D    0.0000
   3963 H           9.2496   37.2564   85.6315 H       237      M_D    0.0000
   3964 H          10.6921   37.4372   86.1315 H       237      M_D    0.0000
   3965 C         -10.1180   -8.0081   76.8011 C.1     238      M_A    0.0000
   3966 O          -9.8899   -8.8213   77.4971 O.2     238      M_A    0.0000
   3967 C         -11.1428   -7.9004   75.9383 C.3     238      M_A    0.0000
   3968 O         -11.7871   -8.9958   76.0104 O.3     238      M_A    0.0000
   3969 H         -10.7815   -7.7640   75.0320 H       238      M_A    0.0000
   3970 H         -11.7083   -7.1412   76.2107 H       238      M_A    0.0000
   3971 O         -11.8246   -9.4088   77.2080 O.3     239      M_D    0.0000
   3972 C         -11.2892  -10.5681   77.3216 C.3     239      M_D    0.0000
   3973 C         -12.2140  -11.5500   77.0806 C.3     239      M_D    0.0000
   3974 H         -10.9301  -10.6389   78.2363 H       239      M_D    0.0000
   3975 H         -10.5185  -10.6689   76.7126 H       239      M_D    0.0000
   3976 H         -11.7866  -12.4340   77.0239 H       239      M_D    0.0000
   3977 H         -12.8532  -11.5759   77.8286 H       239      M_D    0.0000
   3978 O         -12.9385  -11.3153   75.9017 O.3     240      M_D    0.0000
   3979 C         -14.1855  -11.5675   76.0592 C.3     240      M_D    0.0000
   3980 C         -14.4947  -12.8002   75.5472 C.3     240      M_D    0.0000
   3981 H         -14.6905  -10.8577   75.5989 H       240      M_D    0.0000
   3982 H         -14.4442  -11.5191   77.0109 H       240      M_D    0.0000
   3983 H         -14.8231  -12.7285   74.6228 H       240      M_D    0.0000
   3984 H         -13.6799  -13.3520   75.5315 H       240      M_D    0.0000
   3985 O         -15.4540  -13.4690   76.3233 O.3     241      M_D    0.0000
   3986 C         -15.3903  -14.7385   76.1565 C.3     241      M_D    0.0000
   3987 C         -16.5343  -15.2028   75.5622 C.3     241      M_D    0.0000
   3988 H         -15.2635  -15.1467   77.0442 H       241      M_D    0.0000
   3989 H         -14.6009  -14.9910   75.6199 H       241      M_D    0.0000
   3990 H         -17.2630  -14.5461   75.6333 H       241      M_D    0.0000
   3991 H         -16.3587  -15.3501   74.6050 H       241      M_D    0.0000
   3992 O         -16.9599  -16.4206   76.1152 O.3     242      M_D    0.0000
   3993 C         -17.5192  -17.1658   75.2348 C.3     242      M_D    0.0000
   3994 C         -18.8597  -17.2884   75.4908 C.3     242      M_D    0.0000
   3995 H         -17.0728  -18.0436   75.2646 H       242      M_D    0.0000
   3996 H         -17.3771  -16.8134   74.3234 H       242      M_D    0.0000
   3997 H         -19.0742  -16.9994   76.4061 H       242      M_D    0.0000
   3998 H         -19.3567  -16.7074   74.8710 H       242      M_D    0.0000
   3999 C         -19.3142  -18.6036   75.3075 C.2     243      M_B    0.0000
   4000 O         -18.4699  -19.3005   75.3271 O.2     243      M_B    0.0000
   4001 C         -20.6283  -18.8756   75.1439 C.3     243      M_B    0.0000
   4002 C         -21.1187  -18.1963   74.0603 C.3     243      M_B    0.0000
   4003 O         -20.6715  -20.1365   74.9303 O.3     243      M_B    0.0000
   4004 H         -21.1003  -18.6258   75.9738 H       243      M_B    0.0000
   4005 H         -21.0554  -17.2234   74.1843 H       243      M_B    0.0000
   4006 H         -20.6237  -18.4333   73.2430 H       243      M_B    0.0000
   4007 H         -22.0612  -18.4253   73.8990 H       243      M_B    0.0000
   4008 C         -21.8007  -20.6271   75.2360 C.2     244      M_B    0.0000
   4009 O         -22.2754  -20.0232   76.0162 O.2     244      M_B    0.0000
   4010 C         -22.2714  -21.7379   74.6262 C.3     244      M_B    0.0000
   4011 C         -21.3494  -22.7474   74.7089 C.3     244      M_B    0.0000
   4012 O         -23.3231  -22.0463   75.2868 O.3     244      M_B    0.0000
   4013 H         -22.4786  -21.5105   73.6885 H       244      M_B    0.0000
   4014 H         -20.5152  -22.5144   74.2441 H       244      M_B    0.0000
   4015 H         -21.1306  -22.9482   75.6475 H       244      M_B    0.0000
   4016 H         -21.7001  -23.5770   74.3144 H       244      M_B    0.0000
   4017 O         -24.1989  -22.5922   74.5493 O.3     245      M_D    0.0000
   4018 C         -24.9370  -23.4001   75.2169 C.3     245      M_D    0.0000
   4019 C         -26.2266  -22.9401   75.2703 C.3     245      M_D    0.0000
   4020 H         -24.5513  -23.4739   76.1206 H       245      M_D    0.0000
   4021 H         -24.9151  -24.3088   74.8311 H       245      M_D    0.0000
   4022 H         -26.6960  -23.2903   76.0605 H       245      M_D    0.0000
   4023 H         -26.2117  -21.9587   75.3437 H       245      M_D    0.0000
   4024 O         -26.9552  -23.2757   74.1187 O.3     246      M_D    0.0000
   4025 C         -26.1811  -23.6321   73.1610 C.3     246      M_D    0.0000
   4026 C         -26.4842  -22.9424   72.0164 C.3     246      M_D    0.0000
   4027 H         -26.3002  -24.6014   73.0305 H       246      M_D    0.0000
   4028 H         -25.2319  -23.4988   73.3980 H       246      M_D    0.0000
   4029 H         -26.5024  -21.9728   72.1805 H       246      M_D    0.0000
   4030 H         -25.7862  -23.1176   71.3449 H       246      M_D    0.0000
   4031 O         -27.7158  -23.3380   71.4720 O.3     247      M_D    0.0000
   4032 C         -28.6996  -22.8658   72.1448 C.3     247      M_D    0.0000
   4033 C         -29.2563  -23.8409   72.9302 C.3     247      M_D    0.0000
   4034 H         -29.3566  -22.5147   71.4999 H       247      M_D    0.0000
   4035 H         -28.4195  -22.0992   72.7005 H       247      M_D    0.0000
   4036 H         -30.0193  -24.2673   72.4793 H       247      M_D    0.0000
   4037 H         -28.5822  -24.5381   73.0980 H       247      M_D    0.0000
   4038 O         -29.6790  -23.3415   74.1719 O.3     248      M_D    0.0000
   4039 C         -29.8848  -24.2872   75.0125 C.3     248      M_D    0.0000
   4040 C         -30.6651  -23.8470   76.0493 C.2     248      M_D    0.0000
   4041 H         -29.0052  -24.5899   75.3372 H       248      M_D    0.0000
   4042 H         -30.3041  -25.0686   74.5784 H       248      M_D    0.0000
   4043 H         -31.4338  -23.3293   75.7201 H       248      M_D    0.0000
   4044 H         -31.0176  -24.6266   76.5358 H       248      M_D    0.0000
   4045 C           5.1908  -10.6637   66.4751 C.1     249      M_A    0.0000
   4046 O           6.2576  -10.5050   67.0421 O.2     249      M_A    0.0000
   4047 C           4.5618  -11.9353   65.9988 C.3     249      M_A    0.0000
   4048 O           5.4454  -12.9795   66.3700 O.3     249      M_A    0.0000
   4049 H           4.4490  -11.8869   64.9088 H       249      M_A    0.0000
   4050 H           3.5881  -12.0533   66.4898 H       249      M_A    0.0000
   4051 O           6.7864  -12.5698   66.2109 O.3     250      M_D    0.0000
   4052 C           7.6208  -13.6567   65.8113 C.3     250      M_D    0.0000
   4053 C           8.5854  -14.0308   66.9325 C.3     250      M_D    0.0000
   4054 H           8.1662  -13.3394   64.9139 H       250      M_D    0.0000
   4055 H           7.0240  -14.5316   65.5165 H       250      M_D    0.0000
   4056 H           9.5494  -13.5258   66.8096 H       250      M_D    0.0000
   4057 H           8.1605  -13.7056   67.8889 H       250      M_D    0.0000
   4058 O           8.8243  -15.5731   67.0125 O.3     251      M_D    0.0000
   4059 C          10.1410  -15.9207   66.5847 C.3     251      M_D    0.0000
   4060 C          10.2783  -17.4344   66.4526 C.3     251      M_D    0.0000
   4061 H          10.8432  -15.5264   67.3297 H       251      M_D    0.0000
   4062 H          10.3942  -15.4322   65.6329 H       251      M_D    0.0000
   4063 H           9.6358  -17.9538   67.1713 H       251      M_D    0.0000
   4064 H           9.9598  -17.7328   65.4473 H       251      M_D    0.0000
   4065 O          11.7535  -17.9106   66.6503 O.3     252      M_D    0.0000
   4066 C          11.9475  -19.2327   66.1485 C.3     252      M_D    0.0000
   4067 C          12.2553  -20.1979   67.2891 C.3     252      M_D    0.0000
   4068 H          12.7777  -19.1937   65.4324 H       252      M_D    0.0000
   4069 H          11.0696  -19.5791   65.5846 H       252      M_D    0.0000
   4070 H          13.1203  -19.8607   67.8698 H       252      M_D    0.0000
   4071 H          11.3944  -20.2322   67.9665 H       252      M_D    0.0000
   4072 O          12.5206  -21.6498   66.7755 O.3     253      M_D    0.0000
   4073 C          12.0597  -22.6265   67.7087 C.3     253      M_D    0.0000
   4074 C          13.2287  -23.4466   68.2459 C.3     253      M_D    0.0000
   4075 H          11.3390  -23.2667   67.1851 H       253      M_D    0.0000
   4076 H          11.5111  -22.1589   68.5388 H       253      M_D    0.0000
   4077 H          14.1177  -22.8227   68.3862 H       253      M_D    0.0000
   4078 H          12.9540  -23.8568   69.2243 H       253      M_D    0.0000
   4079 C          13.5884  -24.6429   67.3070 C.2     254      M_B    0.0000
   4080 O          13.1580  -24.4398   66.1846 O.2     254      M_B    0.0000
   4081 C          14.3659  -25.8277   67.8142 C.3     254      M_B    0.0000
   4082 C          13.4500  -26.7576   68.6031 C.3     254      M_B    0.0000
   4083 O          14.8320  -26.4808   66.6368 O.3     254      M_B    0.0000
   4084 H          15.1945  -25.4553   68.4323 H       254      M_B    0.0000
   4085 H          13.0397  -26.2626   69.4888 H       254      M_B    0.0000
   4086 H          12.6117  -27.0991   67.9849 H       254      M_B    0.0000
   4087 H          13.9887  -27.6531   68.9297 H       254      M_B    0.0000
   4088 C          15.4056  -27.7383   66.9272 C.2     255      M_B    0.0000
   4089 O          15.5288  -28.3899   65.9043 O.2     255      M_B    0.0000
   4090 C          15.7818  -28.1193   68.3340 C.3     255      M_B    0.0000
   4091 C          14.5735  -27.9854   69.2548 C.3     255      M_B    0.0000
   4092 O          16.1793  -29.4843   68.2411 O.3     255      M_B    0.0000
   4093 H          16.6094  -27.4717   68.6552 H       255      M_B    0.0000
   4094 H          14.2183  -26.9514   69.3054 H       255      M_B    0.0000
   4095 H          13.7449  -28.6134   68.9077 H       255      M_B    0.0000
   4096 H          14.8169  -28.3142   70.2703 H       255      M_B    0.0000
   4097 O          16.9322  -29.8885   69.3657 O.3     256      M_D    0.0000
   4098 C          18.0004  -30.7592   68.9937 C.3     256      M_D    0.0000
   4099 C          17.8590  -32.1080   69.6926 C.3     256      M_D    0.0000
   4100 H          18.9391  -30.2670   69.2766 H       256      M_D    0.0000
   4101 H          18.0413  -30.8990   67.9040 H       256      M_D    0.0000
   4102 H          18.8107  -32.4285   70.1295 H       256      M_D    0.0000
   4103 H          17.1356  -32.0097   70.5099 H       256      M_D    0.0000
   4104 O          17.3420  -33.2206   68.7246 O.3     257      M_D    0.0000
   4105 C          16.0951  -33.7579   69.1648 C.3     257      M_D    0.0000
   4106 C          15.8518  -35.1276   68.5382 C.3     257      M_D    0.0000
   4107 H          15.3106  -33.0483   68.8740 H       257      M_D    0.0000
   4108 H          16.0554  -33.8298   70.2612 H       257      M_D    0.0000
   4109 H          15.4102  -35.8206   69.2621 H       257      M_D    0.0000
   4110 H          15.1429  -35.0175   67.7097 H       257      M_D    0.0000
   4111 O          17.1645  -35.7545   67.9674 O.3     258      M_D    0.0000
   4112 C          17.9994  -34.7636   67.3687 C.3     258      M_D    0.0000
   4113 C          18.1079  -34.9935   65.8643 C.3     258      M_D    0.0000
   4114 H          18.9839  -34.8304   67.8480 H       258      M_D    0.0000
   4115 H          17.6253  -33.7499   67.5716 H       258      M_D    0.0000
   4116 H          18.1402  -36.0626   65.6292 H       258      M_D    0.0000
   4117 H          17.2208  -34.5737   65.3766 H       258      M_D    0.0000
   4118 O          19.3668  -34.2985   65.2526 O.3     259      M_D    0.0000
   4119 C          19.6004  -33.0226   65.8482 C.3     259      M_D    0.0000
   4120 C          21.0707  -32.6351   65.7233 C.2     259      M_D    0.0000
   4121 H          19.3008  -33.0920   66.9013 H       259      M_D    0.0000
   4122 H          18.9641  -32.2480   65.3967 H       259      M_D    0.0000
   4123 H          21.4440  -32.8216   64.7108 H       259      M_D    0.0000
   4124 H          21.1726  -31.5621   65.9216 H       259      M_D    0.0000
   4125 C          -0.4027   10.5166   66.2078 C.1     260      M_A    0.0000
   4126 O          -0.3093   10.8827   67.2312 O.2     260      M_A    0.0000
   4127 C          -0.2958   11.1978   65.0591 C.3     260      M_A    0.0000
   4128 O          -1.3293   11.9299   64.9819 O.3     260      M_A    0.0000
   4129 H          -0.2625   10.5587   64.3144 H       260      M_A    0.0000
   4130 H           0.5194   11.7444   65.0904 H       260      M_A    0.0000
   4131 O          -1.7829   11.9293   63.8027 O.3     261      M_D    0.0000
   4132 C          -0.8758   12.2253   62.9526 C.3     261      M_D    0.0000
   4133 C          -0.6614   13.5740   62.9311 C.3     261      M_D    0.0000
   4134 H          -1.1787   11.9036   62.0754 H       261      M_D    0.0000
   4135 H          -0.0355   11.7507   63.1459 H       261      M_D    0.0000
   4136 H          -0.5478   13.8997   62.0134 H       261      M_D    0.0000
   4137 H          -1.4447   14.0260   63.3115 H       261      M_D    0.0000
   4138 O           0.4567   13.9414   63.6875 O.3     262      M_D    0.0000
   4139 C           0.2169   14.9693   64.4079 C.3     262      M_D    0.0000
   4140 C           1.3537   15.7054   64.5855 C.3     262      M_D    0.0000
   4141 H          -0.1332   14.6503   65.2682 H       262      M_D    0.0000
   4142 H          -0.4905   15.5271   64.0114 H       262      M_D    0.0000
   4143 H           2.0954   15.1425   64.8925 H       262      M_D    0.0000
   4144 H           1.6154   16.0978   63.7252 H       262      M_D    0.0000
   4145 O           1.1669   16.7510   65.4962 O.3     263      M_D    0.0000
   4146 C           1.6900   17.8378   65.0742 C.3     263      M_D    0.0000
   4147 C           2.1339   18.5939   66.1215 C.3     263      M_D    0.0000
   4148 H           1.0017   18.3161   64.5622 H       263      M_D    0.0000
   4149 H           2.4274   17.6602   64.4469 H       263      M_D    0.0000
   4150 H           1.6175   18.4102   66.9344 H       263      M_D    0.0000
   4151 H           3.0694   18.3628   66.3058 H       263      M_D    0.0000
   4152 O           2.0759   19.9639   65.8437 O.3     264      M_D    0.0000
   4153 C           3.1400   20.5629   66.2203 C.3     264      M_D    0.0000
   4154 C           2.8919   21.8884   66.4375 C.3     264      M_D    0.0000
   4155 H           3.8113   20.4422   65.5136 H       264      M_D    0.0000
   4156 H           3.5152   20.1502   67.0313 H       264      M_D    0.0000
   4157 H           2.2452   22.0131   67.1638 H       264      M_D    0.0000
   4158 H           3.7272   22.3279   66.7054 H       264      M_D    0.0000
   4159 C           2.4173   22.5304   65.2885 C.2     265      M_B    0.0000
   4160 O           1.7764   21.8554   64.7185 O.2     265      M_B    0.0000
   4161 C           2.7527   23.8056   65.0107 C.3     265      M_B    0.0000
   4162 C           2.8616   23.9792   63.6608 C.3     265      M_B    0.0000
   4163 O           1.7834   24.4985   65.4661 O.3     265      M_B    0.0000
   4164 H           3.5978   24.0084   65.4717 H       265      M_B    0.0000
   4165 H           3.5735   23.4227   63.2820 H       265      M_B    0.0000
   4166 H           2.0216   23.7492   63.2087 H       265      M_B    0.0000
   4167 H           3.0548   24.9150   63.4423 H       265      M_B    0.0000
   4168 C           2.1898   25.4787   66.1537 C.2     266      M_B    0.0000
   4169 O           1.7597   25.4388   67.1561 O.2     266      M_B    0.0000
   4170 C           3.0382   26.3904   65.6389 C.3     266      M_B    0.0000
   4171 C           2.7381   26.6234   64.3275 C.3     266      M_B    0.0000
   4172 O           2.8354   27.4432   66.3299 O.3     266      M_B    0.0000
   4173 H           3.9555   26.0514   65.7462 H       266      M_B    0.0000
   4174 H           2.8455   25.8153   63.7839 H       266      M_B    0.0000
   4175 H           1.8131   26.9359   64.2295 H       266      M_B    0.0000
   4176 H           3.3151   27.3227   63.9548 H       266      M_B    0.0000
   4177 O           3.1954   28.4862   65.7124 O.3     267      M_D    0.0000
   4178 C           3.9911   28.2096   64.7514 C.3     267      M_D    0.0000
   4179 C           5.0633   29.0557   64.7589 C.3     267      M_D    0.0000
   4180 H           3.4828   28.2938   63.9152 H       267      M_D    0.0000
   4181 H           4.2957   27.2748   64.7967 H       267      M_D    0.0000
   4182 H           5.8774   28.5927   65.0491 H       267      M_D    0.0000
   4183 H           5.2168   29.3817   63.8463 H       267      M_D    0.0000
   4184 O           4.8516   30.1666   65.5826 O.3     268      M_D    0.0000
   4185 C           5.2332   31.2474   65.0175 C.3     268      M_D    0.0000
   4186 C           5.2831   32.2692   65.9225 C.3     268      M_D    0.0000
   4187 H           4.5935   31.4452   64.2990 H       268      M_D    0.0000
   4188 H           6.1096   31.1345   64.5839 H       268      M_D    0.0000
   4189 H           6.0215   32.1454   66.5555 H       268      M_D    0.0000
   4190 H           5.4412   33.1104   65.4430 H       268      M_D    0.0000
   4191 O           4.0868   32.3991   66.6362 O.3     269      M_D    0.0000
   4192 C           3.8469   33.6198   66.9285 C.3     269      M_D    0.0000
   4193 C           2.5210   33.9009   66.7594 C.3     269      M_D    0.0000
   4194 H           4.4021   34.1775   66.3409 H       269      M_D    0.0000
   4195 H           4.1236   33.8283   67.8498 H       269      M_D    0.0000
   4196 H           2.0913   33.2419   66.1745 H       269      M_D    0.0000
   4197 H           2.0740   33.8595   67.6318 H       269      M_D    0.0000
   4198 O           2.3173   35.1807   66.2321 O.3     270      M_D    0.0000
   4199 C           1.8217   35.1283   65.0554 C.3     270      M_D    0.0000
   4200 C           2.5894   35.8429   64.1803 C.3     270      M_D    0.0000
   4201 H           0.9112   35.4934   65.1033 H       270      M_D    0.0000
   4202 H           1.7307   34.1983   64.7464 H       270      M_D    0.0000
   4203 H           3.3325   35.3024   63.8385 H       270      M_D    0.0000
   4204 H           2.0360   36.1051   63.4136 H       270      M_D    0.0000
   4205 C           3.1016   37.0087   64.7598 C.2     271      M_A    0.0000
   4206 O           3.8705   36.7646   65.4942 O.2     271      M_A    0.0000
   4207 C           2.6425   38.2128   64.3932 C.3     271      M_A    0.0000
   4208 O           2.2457   38.7812   65.4560 O.2     271      M_A    0.0000
   4209 H           1.8995   38.0895   63.7632 H       271      M_A    0.0000
   4210 H           3.3754   38.7177   63.9783 H       271      M_A    0.0000
   4211 C           9.4340   -5.5472   34.3707 C.1     272      M_A    0.0000
   4212 O          10.2414   -4.9025   34.5412 O.2     272      M_A    0.0000
   4213 C           9.4499   -6.8027   34.0922 C.3     272      M_A    0.0000
   4214 O          10.4847   -7.2435   34.5597 O.3     272      M_A    0.0000
   4215 H           9.4331   -6.9061   33.1554 H       272      M_A    0.0000
   4216 H           8.6997   -7.2115   34.4906 H       272      M_A    0.0000
   4217 O          11.3858   -6.4435   34.4222 O.3     273      M_D    0.0000
   4218 C          12.1052   -6.7364   33.4727 C.3     273      M_D    0.0000
   4219 C          13.3475   -6.8833   33.8655 C.3     273      M_D    0.0000
   4220 H          12.0317   -6.0428   32.8384 H       273      M_D    0.0000
   4221 H          11.8040   -7.5220   33.0429 H       273      M_D    0.0000
   4222 H          13.8226   -6.0736   33.7995 H       273      M_D    0.0000
   4223 H          13.3521   -7.1434   34.7707 H       273      M_D    0.0000
   4224 O          13.9918   -7.8280   33.1611 O.3     274      M_D    0.0000
   4225 C          14.8079   -8.4266   33.8543 C.3     274      M_D    0.0000
   4226 C          16.0282   -8.1843   33.4404 C.3     274      M_D    0.0000
   4227 H          14.6079   -9.3461   33.7954 H       274      M_D    0.0000
   4228 H          14.7206   -8.1941   34.7660 H       274      M_D    0.0000
   4229 H          16.0968   -8.2859   32.5072 H       274      M_D    0.0000
   4230 H          16.2484   -7.2922   33.6467 H       274      M_D    0.0000
   4231 O          16.9312   -8.9807   34.0354 O.3     275      M_D    0.0000
   4232 C          18.0691   -8.5392   33.9130 C.3     275      M_D    0.0000
   4233 C          18.8213   -9.3845   33.2505 C.3     275      M_D    0.0000
   4234 H          18.4097   -8.3922   34.7798 H       275      M_D    0.0000
   4235 H          18.0668   -7.6981   33.4827 H       275      M_D    0.0000
   4236 H          18.2973  -10.0023   32.7715 H       275      M_D    0.0000
   4237 H          19.3397   -8.9064   32.6262 H       275      M_D    0.0000
   4238 O          19.6604  -10.0542   34.0574 O.3     276      M_D    0.0000
   4239 C          20.7890  -10.1152   33.5805 C.3     276      M_D    0.0000
   4240 C          21.0825  -11.3498   33.2506 C.3     276      M_D    0.0000
   4241 H          21.3883   -9.7882   34.2307 H       276      M_D    0.0000
   4242 H          20.8761   -9.5476   32.8301 H       276      M_D    0.0000
   4243 H          21.3346  -11.8522   34.0054 H       276      M_D    0.0000
   4244 H          20.3177  -11.7562   32.8804 H       276      M_D    0.0000
   4245 C          22.0648  -11.4088   32.3367 C.2     277      M_B    0.0000
   4246 O          21.8380  -10.7893   31.5227 O.2     277      M_B    0.0000
   4247 C          23.1101  -12.1483   32.5212 C.3     277      M_B    0.0000
   4248 C          22.7652  -13.4118   32.5715 C.3     277      M_B    0.0000
   4249 O          23.8109  -11.9411   31.5387 O.3     277      M_B    0.0000
   4250 H          23.5308  -11.8703   33.3196 H       277      M_B    0.0000
   4251 H          22.1919  -13.5855   33.2966 H       277      M_B    0.0000
   4252 H          22.3243  -13.6722   31.7809 H       277      M_B    0.0000
   4253 H          23.5224  -13.9640   32.6560 H       277      M_B    0.0000
   4254 C          24.5868  -12.8529   31.3387 C.2     278      M_B    0.0000
   4255 O          24.5278  -13.1642   30.3400 O.2     278      M_B    0.0000
   4256 C          25.3452  -13.3084   32.2824 C.3     278      M_B    0.0000
   4257 C          24.6168  -13.8808   33.2096 C.3     278      M_B    0.0000
   4258 O          26.0561  -14.1394   31.7316 O.3     278      M_B    0.0000
   4259 H          25.8482  -12.5887   32.6298 H       278      M_B    0.0000
   4260 H          24.0323  -13.2676   33.6182 H       278      M_B    0.0000
   4261 H          24.1004  -14.5807   32.8478 H       278      M_B    0.0000
   4262 H          25.1600  -14.2600   33.8778 H       278      M_B    0.0000
   4263 O          27.0418  -14.3971   32.3915 O.3     279      M_D    0.0000
   4264 C          28.0351  -14.5262   31.6834 C.3     279      M_D    0.0000
   4265 C          28.8513  -15.4162   32.1942 C.3     279      M_D    0.0000
   4266 H          28.4509  -13.6822   31.6237 H       279      M_D    0.0000
   4267 H          27.7990  -14.7687   30.8012 H       279      M_D    0.0000
   4268 H          29.5242  -15.0047   32.7078 H       279      M_D    0.0000
   4269 H          28.3638  -15.9840   32.7659 H       279      M_D    0.0000
   4270 O          29.4258  -16.1769   31.2482 O.3     280      M_D    0.0000
   4271 C          30.5212  -15.7335   30.9193 C.3     280      M_D    0.0000
   4272 C          30.4034  -14.9399   29.8823 C.3     280      M_D    0.0000
   4273 H          31.0754  -16.4697   30.7195 H       280      M_D    0.0000
   4274 H          30.9356  -15.2760   31.6347 H       280      M_D    0.0000
   4275 H          31.1299  -15.0414   29.2926 H       280      M_D    0.0000
   4276 H          29.6203  -15.1681   29.4114 H       280      M_D    0.0000
   4277 O          30.3078  -13.6494   30.2418 O.3     281      M_D    0.0000
   4278 C          31.2744  -13.0020   29.8525 C.3     281      M_D    0.0000
   4279 C          32.0512  -12.6849   30.8600 C.3     281      M_D    0.0000
   4280 H          30.9432  -12.2294   29.4255 H       281      M_D    0.0000
   4281 H          31.7650  -13.4765   29.1991 H       281      M_D    0.0000
   4282 H          32.3846  -13.4543   31.2872 H       281      M_D    0.0000
   4283 H          32.7886  -12.1977   30.5346 H       281      M_D    0.0000
   4284 O          31.4182  -11.9206   31.7651 O.3     282      M_D    0.0000
   4285 C          32.2047  -11.2061   32.3780 C.3     282      M_D    0.0000
   4286 C          32.3641  -11.6436   33.6037 C.3     282      M_D    0.0000
   4287 H          31.8527  -10.3315   32.3751 H       282      M_D    0.0000
   4288 H          33.0395  -11.1575   31.9380 H       282      M_D    0.0000
   4289 H          33.2603  -11.5631   33.8793 H       282      M_D    0.0000
   4290 H          31.8393  -11.1200   34.1847 H       282      M_D    0.0000
   4291 C          31.9775  -12.9228   33.7379 C.2     283      M_A    0.0000
   4292 O          31.3437  -13.1992   32.9514 O.2     283      M_A    0.0000
   4293 C          32.3843  -13.6302   34.7320 C.3     283      M_A    0.0000
   4294 O          31.8817  -14.7314   34.5962 O.3     283      M_A    0.0000
   4295 H          32.0946  -13.2244   35.5320 H       283      M_A    0.0000
   4296 H          33.3249  -13.6836   34.7017 H       283      M_A    0.0000
   4297 C          32.7380  -15.5902   34.5951 C.2     284      M_B    0.0000
   4298 O          33.5949  -15.2447   34.1010 O.2     284      M_B    0.0000
   4299 C          32.5372  -16.7393   35.1542 C.3     284      M_B    0.0000
   4300 C          32.0913  -17.5988   34.2709 C.3     284      M_B    0.0000
   4301 O          33.6415  -17.0827   35.5568 O.3     284      M_B    0.0000
   4302 H          31.9249  -16.6194   35.8631 H       284      M_B    0.0000
   4303 H          31.2614  -17.3326   33.9172 H       284      M_B    0.0000
   4304 H          32.6976  -17.6921   33.5560 H       284      M_B    0.0000
   4305 H          31.9881  -18.4520   34.6540 H       284      M_B    0.0000
   4306 O          34.5095  -16.3111   35.2038 O.3     285      M_D    0.0000
   4307 C          34.5777  -16.2410   33.9810 C.3     285      M_D    0.0000
   4308 C          35.6112  -15.5199   33.6189 C.2     285      M_D    0.0000
   4309 H          33.7735  -15.8556   33.6750 H       285      M_D    0.0000
   4310 H          34.6260  -17.0997   33.5898 H       285      M_D    0.0000
   4311 H          36.3809  -15.7620   34.1034 H       285      M_D    0.0000
   4312 H          35.7876  -15.6766   32.7071 H       285      M_D    0.0000
@<TRIPOS>BOND
     1     1     2      1
     2     1  2245      1
     3     1  2246      1
     4     2     5      1
     5     2     7      1
     6     3     9      1
     7     3    11      1
     8     3  2247      1
     9     4     5      1
    10     4    11      1
    11     4  2248      1
    12     5     6      1
    13     6    13      1
    14     6    15      1
    15     7     8      1
    16     7   575      1
    17     8    15      1
    18     8   642      1
    19     9    10      1
    20     9  2249      1
    21    10    22      1
    22    10    24      1
    23    11    12      1
    24    12    13      1
    25    12    24      1
    26    13    14      1
    27    14    26      1
    28    14    28      1
    29    15    16      1
    30    16    17      1
    31    16    28      1
    32    17    18      1
    33    17   643      1
    34    18    30      1
    35    18    32      1
    36    19    36      1
    37    19    38      1
    38    19  2250      1
    39    20    21      1
    40    20  2251      1
    41    20  2252      1
    42    21    22      1
    43    21    38      1
    44    22    23      1
    45    23    40      1
    46    23    42      1
    47    24    25      1
    48    25    26      1
    49    25    42      1
    50    26    27      1
    51    27    44      1
    52    27    46      1
    53    28    29      1
    54    29    30      1
    55    29    46      1
    56    30    31      1
    57    31    48      1
    58    31    50      1
    59    32    33      1
    60    32   707      1
    61    33    50      1
    62    33   765      1
    63    34    54      1
    64    34    56      1
    65    34  2253      1
    66    35    36      1
    67    35    56      1
    68    35  2254      1
    69    36    37      1
    70    37    58      1
    71    37    60      1
    72    38    39      1
    73    39    40      1
    74    39    60      1
    75    40    41      1
    76    41    62      1
    77    41    64      1
    78    42    43      1
    79    43    44      1
    80    43    64      1
    81    44    45      1
    82    45    66      1
    83    45    68      1
    84    46    47      1
    85    47    48      1
    86    47    68      1
    87    48    49      1
    88    49    70      1
    89    49    72      1
    90    50    51      1
    91    51    52      1
    92    51    72      1
    93    52    53      1
    94    52   766      1
    95    53    74      1
    96    53    76      1
    97    54    55      1
    98    54  2255      1
    99    55    81      1
   100    55    83      1
   101    56    57      1
   102    57    58      1
   103    57    83      1
   104    58    59      1
   105    59    85      1
   106    59    87      1
   107    60    61      1
   108    61    62      1
   109    61    87      1
   110    62    63      1
   111    63    89      1
   112    63    91      1
   113    64    65      1
   114    65    66      1
   115    65    91      1
   116    66    67      1
   117    67    93      1
   118    67    95      1
   119    68    69      1
   120    69    70      1
   121    69    95      1
   122    70    71      1
   123    71    97      1
   124    71    99      1
   125    72    73      1
   126    73    74      1
   127    73    99      1
   128    74    75      1
   129    75   101      1
   130    75   103      1
   131    76    77      1
   132    76   820      1
   133    77   103      1
   134    77   869      1
   135    78   105      1
   136    78   869      1
   137    78   914      1
   138    79   108      1
   139    79   110      1
   140    79  2256      1
   141    80    81      1
   142    80   110      1
   143    80  2257      1
   144    81    82      1
   145    82   112      1
   146    82   114      1
   147    83    84      1
   148    84    85      1
   149    84   114      1
   150    85    86      1
   151    86   116      1
   152    86   118      1
   153    87    88      1
   154    88    89      1
   155    88   118      1
   156    89    90      1
   157    90   120      1
   158    90   122      1
   159    91    92      1
   160    92    93      1
   161    92   122      1
   162    93    94      1
   163    94   124      1
   164    94   126      1
   165    95    96      1
   166    96    97      1
   167    96   126      1
   168    97    98      1
   169    98   128      1
   170    98   130      1
   171    99   100      1
   172   100   101      1
   173   100   130      1
   174   101   102      1
   175   102   132      1
   176   102   134      1
   177   103   104      1
   178   104   105      1
   179   104   134      1
   180   105   106      1
   181   106   136      1
   182   106   138      1
   183   107   108      1
   184   107   143      1
   185   107  2258      1
   186   108   109      1
   187   109   145      1
   188   109   147      1
   189   110   111      1
   190   111   112      1
   191   111   147      1
   192   112   113      1
   193   113   149      1
   194   113   151      1
   195   114   115      1
   196   115   116      1
   197   115   151      1
   198   116   117      1
   199   117   153      1
   200   117   155      1
   201   118   119      1
   202   119   120      1
   203   119   155      1
   204   120   121      1
   205   121   157      1
   206   121   159      1
   207   122   123      1
   208   123   124      1
   209   123   159      1
   210   124   125      1
   211   125   161      1
   212   125   163      1
   213   126   127      1
   214   127   128      1
   215   127   163      1
   216   128   129      1
   217   129   165      1
   218   129   167      1
   219   130   131      1
   220   131   132      1
   221   131   167      1
   222   132   133      1
   223   133   169      1
   224   133   171      1
   225   134   135      1
   226   135   136      1
   227   135   171      1
   228   136   137      1
   229   137   173      1
   230   137   175      1
   231   138   139      1
   232   138   915      1
   233   139   175      1
   234   139   955      1
   235   140   177      1
   236   140   955      1
   237   140   990      1
   238   141   142      1
   239   141  2259      1
   240   141  2260      1
   241   142   181      1
   242   142   183      1
   243   143   144      1
   244   143  2261      1
   245   144   145      1
   246   144   183      1
   247   145   146      1
   248   146   185      1
   249   146   187      1
   250   147   148      1
   251   148   149      1
   252   148   187      1
   253   149   150      1
   254   150   189      1
   255   150   191      1
   256   151   152      1
   257   152   153      1
   258   152   191      1
   259   153   154      1
   260   154   193      1
   261   154   195      1
   262   155   156      1
   263   156   157      1
   264   156   195      1
   265   157   158      1
   266   158   197      1
   267   158   199      1
   268   159   160      1
   269   160   161      1
   270   160   199      1
   271   160  2228      1
   272   161   162      1
   273   162   201      1
   274   162   203      1
   275   163   164      1
   276   164   165      1
   277   164   203      1
   278   165   166      1
   279   166   205      1
   280   166   207      1
   281   167   168      1
   282   168   169      1
   283   168   207      1
   284   169   170      1
   285   170   209      1
   286   170   211      1
   287   171   172      1
   288   172   173      1
   289   172   211      1
   290   173   174      1
   291   174   213      1
   292   174   215      1
   293   175   176      1
   294   176   177      1
   295   176   215      1
   296   177   178      1
   297   178   217      1
   298   178   219      1
   299   179   223      1
   300   179   225      1
   301   179  2262      1
   302   180   181      1
   303   180   225      1
   304   180  2263      1
   305   181   182      1
   306   182   227      1
   307   182   229      1
   308   183   184      1
   309   184   185      1
   310   184   229      1
   311   185   186      1
   312   186   231      1
   313   186   233      1
   314   187   188      1
   315   188   189      1
   316   188   233      1
   317   189   190      1
   318   190   235      1
   319   190   237      1
   320   191   192      1
   321   192   193      1
   322   192   237      1
   323   193   194      1
   324   194   239      1
   325   194   241      1
   326   195   196      1
   327   196   197      1
   328   196   241      1
   329   197   198      1
   330   198   243      1
   331   198   245      1
   332   199   200      1
   333   200   201      1
   334   200   245      1
   335   201   202      1
   336   202   247      1
   337   202   249      1
   338   203   204      1
   339   204   205      1
   340   204   249      1
   341   205   206      1
   342   206   251      1
   343   206   253      1
   344   207   208      1
   345   208   209      1
   346   208   253      1
   347   209   210      1
   348   210   255      1
   349   210   257      1
   350   211   212      1
   351   212   213      1
   352   212   257      1
   353   213   214      1
   354   214   259      1
   355   214   261      1
   356   215   216      1
   357   216   217      1
   358   216   261      1
   359   217   218      1
   360   218   263      1
   361   218   265      1
   362   219   220      1
   363   219   991      1
   364   220   221      1
   365   220   265      1
   366   221   222      1
   367   221   993      1
   368   222   267      1
   369   222  1048      1
   370   223   224      1
   371   223  2264      1
   372   224   272      1
   373   224   274      1
   374   225   226      1
   375   226   227      1
   376   226   274      1
   377   227   228      1
   378   228   276      1
   379   228   278      1
   380   229   230      1
   381   230   231      1
   382   230   278      1
   383   231   232      1
   384   232   280      1
   385   232   282      1
   386   233   234      1
   387   234   235      1
   388   234   282      1
   389   235   236      1
   390   236   284      1
   391   236   286      1
   392   237   238      1
   393   238   239      1
   394   238   286      1
   395   239   240      1
   396   240   288      1
   397   240   290      1
   398   241   242      1
   399   242   243      1
   400   242   290      1
   401   243   244      1
   402   244   292      1
   403   244   294      1
   404   245   246      1
   405   246   247      1
   406   246   294      1
   407   247   248      1
   408   248   296      1
   409   248   298      1
   410   249   250      1
   411   250   251      1
   412   250   298      1
   413   251   252      1
   414   252   300      1
   415   252   302      1
   416   253   254      1
   417   254   255      1
   418   254   302      1
   419   255   256      1
   420   256   304      1
   421   256   306      1
   422   257   258      1
   423   258   259      1
   424   258   306      1
   425   259   260      1
   426   260   308      1
   427   260   310      1
   428   261   262      1
   429   262   263      1
   430   262   310      1
   431   263   264      1
   432   264   312      1
   433   264   314      1
   434   265   266      1
   435   266   267      1
   436   266   314      1
   437   267   268      1
   438   268   316      1
   439   268   318      1
   440   269   324      1
   441   269   326      1
   442   269  2265      1
   443   270   271      1
   444   270  2266      1
   445   270  2267      1
   446   271   272      1
   447   271   326      1
   448   272   273      1
   449   273   328      1
   450   273   330      1
   451   274   275      1
   452   275   276      1
   453   275   330      1
   454   276   277      1
   455   277   332      1
   456   277   334      1
   457   278   279      1
   458   279   280      1
   459   279   334      1
   460   280   281      1
   461   281   336      1
   462   281   338      1
   463   282   283      1
   464   283   284      1
   465   283   338      1
   466   284   285      1
   467   285   340      1
   468   285   342      1
   469   286   287      1
   470   287   288      1
   471   287   342      1
   472   288   289      1
   473   289   344      1
   474   289   346      1
   475   290   291      1
   476   291   292      1
   477   291   346      1
   478   292   293      1
   479   293   348      1
   480   293   350      1
   481   294   295      1
   482   295   296      1
   483   295   350      1
   484   296   297      1
   485   297   352      1
   486   297   354      1
   487   298   299      1
   488   299   300      1
   489   299   354      1
   490   300   301      1
   491   301   356      1
   492   301   358      1
   493   302   303      1
   494   303   304      1
   495   303   358      1
   496   304   305      1
   497   305   360      1
   498   305   362      1
   499   306   307      1
   500   307   308      1
   501   307   362      1
   502   308   309      1
   503   309   364      1
   504   309   366      1
   505   310   311      1
   506   311   312      1
   507   311   366      1
   508   312   313      1
   509   313   368      1
   510   313   370      1
   511   314   315      1
   512   315   316      1
   513   315   370      1
   514   316   317      1
   515   317   372      1
   516   317   374      1
   517   318   319      1
   518   318  1049      1
   519   319   320      1
   520   319   374      1
   521   320   321      1
   522   320  1051      1
   523   321   376      1
   524   321  1087      1
   525   322   378      1
   526   322   380      1
   527   322  2268      1
   528   323   324      1
   529   323   380      1
   530   323  2269      1
   531   324   325      1
   532   325   382      1
   533   325   384      1
   534   326   327      1
   535   327   328      1
   536   327   384      1
   537   328   329      1
   538   329   386      1
   539   329   388      1
   540   330   331      1
   541   331   332      1
   542   331   388      1
   543   332   333      1
   544   333   390      1
   545   333   392      1
   546   334   335      1
   547   335   336      1
   548   335   392      1
   549   336   337      1
   550   337   394      1
   551   337   396      1
   552   338   339      1
   553   339   340      1
   554   339   396      1
   555   340   341      1
   556   341   398      1
   557   341   400      1
   558   342   343      1
   559   343   344      1
   560   343   400      1
   561   344   345      1
   562   345   402      1
   563   345   404      1
   564   346   347      1
   565   347   348      1
   566   347   404      1
   567   348   349      1
   568   349   406      1
   569   349   408      1
   570   350   351      1
   571   351   352      1
   572   351   408      1
   573   352   353      1
   574   353   410      1
   575   353   412      1
   576   354   355      1
   577   355   356      1
   578   355   412      1
   579   356   357      1
   580   357   414      1
   581   357   416      1
   582   358   359      1
   583   359   360      1
   584   359   416      1
   585   360   361      1
   586   361   418      1
   587   361   420      1
   588   362   363      1
   589   363   364      1
   590   363   420      1
   591   364   365      1
   592   365   422      1
   593   365   424      1
   594   366   367      1
   595   367   368      1
   596   367   424      1
   597   368   369      1
   598   369   426      1
   599   369   428      1
   600   370   371      1
   601   371   372      1
   602   371   428      1
   603   372   373      1
   604   373   430      1
   605   373   432      1
   606   374   375      1
   607   375   376      1
   608   375   432      1
   609   376   377      1
   610   377   434      1
   611   377   436      1
   612   378   379      1
   613   378  2270      1
   614   379   442      1
   615   379   444      1
   616   380   381      1
   617   381   382      1
   618   381   444      1
   619   382   383      1
   620   383   446      1
   621   383   448      1
   622   384   385      1
   623   385   386      1
   624   385   448      1
   625   386   387      1
   626   387   450      1
   627   387   452      1
   628   388   389      1
   629   389   390      1
   630   389   452      1
   631   390   391      1
   632   391   454      1
   633   391   456      1
   634   392   393      1
   635   393   394      1
   636   393   456      1
   637   394   395      1
   638   395   458      1
   639   395   460      1
   640   396   397      1
   641   397   398      1
   642   397   460      1
   643   398   399      1
   644   399   462      1
   645   399   464      1
   646   400   401      1
   647   401   402      1
   648   401   464      1
   649   402   403      1
   650   402  2234      1
   651   403   466      1
   652   403   468      1
   653   404   405      1
   654   405   406      1
   655   405   468      1
   656   406   407      1
   657   407   470      1
   658   407   472      1
   659   408   409      1
   660   409   410      1
   661   409   472      1
   662   410   411      1
   663   411   474      1
   664   411   476      1
   665   411  2227      1
   666   412   413      1
   667   413   414      1
   668   413   476      1
   669   414   415      1
   670   415   478      1
   671   415   480      1
   672   416   417      1
   673   417   418      1
   674   417   480      1
   675   418   419      1
   676   419   482      1
   677   419   484      1
   678   420   421      1
   679   421   422      1
   680   421   484      1
   681   422   423      1
   682   423   486      1
   683   423   488      1
   684   424   425      1
   685   425   426      1
   686   425   488      1
   687   426   427      1
   688   427   490      1
   689   427   492      1
   690   428   429      1
   691   429   430      1
   692   429   492      1
   693   430   431      1
   694   431   494      1
   695   431   496      1
   696   432   433      1
   697   433   434      1
   698   433   496      1
   699   434   435      1
   700   435   498      1
   701   435   500      1
   702   436   437      1
   703   436  1088      1
   704   437   438      1
   705   437   500      1
   706   438   439      1
   707   438  1090      1
   708   439   502      1
   709   439  1109      1
   710   440   506      1
   711   440   508      1
   712   440  2271      1
   713   441   442      1
   714   441   508      1
   715   441  2272      1
   716   442   443      1
   717   443   510      1
   718   443   512      1
   719   444   445      1
   720   445   446      1
   721   445   512      1
   722   446   447      1
   723   447   514      1
   724   447   516      1
   725   448   449      1
   726   449   450      1
   727   449   516      1
   728   450   451      1
   729   451   518      1
   730   451   520      1
   731   452   453      1
   732   453   454      1
   733   453   520      1
   734   454   455      1
   735   455   522      1
   736   455   524      1
   737   456   457      1
   738   457   458      1
   739   457   524      1
   740   458   459      1
   741   459   526      1
   742   459   528      1
   743   460   461      1
   744   461   462      1
   745   461   528      1
   746   462   463      1
   747   463   530      1
   748   463   532      1
   749   464   465      1
   750   465   466      1
   751   465   532      1
   752   466   467      1
   753   467   534      1
   754   467   536      1
   755   468   469      1
   756   469   470      1
   757   469   536      1
   758   470   471      1
   759   471   538      1
   760   471   540      1
   761   472   473      1
   762   473   474      1
   763   473   540      1
   764   474   475      1
   765   475   542      1
   766   475   544      1
   767   476   477      1
   768   477   478      1
   769   477   544      1
   770   478   479      1
   771   479   546      1
   772   479   548      1
   773   480   481      1
   774   481   482      1
   775   481   548      1
   776   482   483      1
   777   483   550      1
   778   483   552      1
   779   484   485      1
   780   485   486      1
   781   485   552      1
   782   486   487      1
   783   487   554      1
   784   487   556      1
   785   488   489      1
   786   489   490      1
   787   489   556      1
   788   490   491      1
   789   491   558      1
   790   491   560      1
   791   492   493      1
   792   493   494      1
   793   493   560      1
   794   494   495      1
   795   495   562      1
   796   495   564      1
   797   496   497      1
   798   497   498      1
   799   497   564      1
   800   498   499      1
   801   499   566      1
   802   499   568      1
   803   500   501      1
   804   501   502      1
   805   501   568      1
   806   502   503      1
   807   503   570      1
   808   503   572      1
   809   504   572      1
   810   504  1109      1
   811   504  1110      1
   812   505   506      1
   813   505   574      1
   814   505  2273      1
   815   506   507      1
   816   507   576      1
   817   507   578      1
   818   508   509      1
   819   509   510      1
   820   509   578      1
   821   510   511      1
   822   511   580      1
   823   511   582      1
   824   512   513      1
   825   513   514      1
   826   513   582      1
   827   514   515      1
   828   515   584      1
   829   515   586      1
   830   516   517      1
   831   517   518      1
   832   517   586      1
   833   518   519      1
   834   519   588      1
   835   519   590      1
   836   520   521      1
   837   521   522      1
   838   521   590      1
   839   522   523      1
   840   523   592      1
   841   523   594      1
   842   524   525      1
   843   525   526      1
   844   525   594      1
   845   526   527      1
   846   527   596      1
   847   527   598      1
   848   528   529      1
   849   529   530      1
   850   529   598      1
   851   530   531      1
   852   531   600      1
   853   531   602      1
   854   532   533      1
   855   533   534      1
   856   533   602      1
   857   534   535      1
   858   535   604      1
   859   535   606      1
   860   536   537      1
   861   537   538      1
   862   537   606      1
   863   538   539      1
   864   539   608      1
   865   539   610      1
   866   540   541      1
   867   541   542      1
   868   541   610      1
   869   542   543      1
   870   543   612      1
   871   543   614      1
   872   544   545      1
   873   545   546      1
   874   545   614      1
   875   546   547      1
   876   547   616      1
   877   547   618      1
   878   548   549      1
   879   549   550      1
   880   549   618      1
   881   550   551      1
   882   551   620      1
   883   551   622      1
   884   552   553      1
   885   553   554      1
   886   553   622      1
   887   554   555      1
   888   555   624      1
   889   555   626      1
   890   556   557      1
   891   557   558      1
   892   557   626      1
   893   558   559      1
   894   559   628      1
   895   559   630      1
   896   560   561      1
   897   561   562      1
   898   561   630      1
   899   562   563      1
   900   563   632      1
   901   563   634      1
   902   564   565      1
   903   565   566      1
   904   565   634      1
   905   566   567      1
   906   566  2230      1
   907   567   636      1
   908   567   638      1
   909   568   569      1
   910   569   570      1
   911   569   638      1
   912   570   571      1
   913   571   640      1
   914   571   641      1
   915   572   573      1
   916   573   641      1
   917   573  1113      1
   918   574   575      1
   919   574  2274      1
   920   575   576      1
   921   576   577      1
   922   577   642      1
   923   577   644      1
   924   578   579      1
   925   579   580      1
   926   579   644      1
   927   580   581      1
   928   581   646      1
   929   581   648      1
   930   582   583      1
   931   583   584      1
   932   583   648      1
   933   584   585      1
   934   585   650      1
   935   585   652      1
   936   586   587      1
   937   587   588      1
   938   587   652      1
   939   588   589      1
   940   589   654      1
   941   589   656      1
   942   590   591      1
   943   591   592      1
   944   591   656      1
   945   592   593      1
   946   593   658      1
   947   593   660      1
   948   594   595      1
   949   595   596      1
   950   595   660      1
   951   596   597      1
   952   597   662      1
   953   597   664      1
   954   598   599      1
   955   599   600      1
   956   599   664      1
   957   600   601      1
   958   601   666      1
   959   601   668      1
   960   602   603      1
   961   603   604      1
   962   603   668      1
   963   604   605      1
   964   605   670      1
   965   605   672      1
   966   606   607      1
   967   607   608      1
   968   607   672      1
   969   608   609      1
   970   609   674      1
   971   609   676      1
   972   610   611      1
   973   611   612      1
   974   611   676      1
   975   612   613      1
   976   613   678      1
   977   613   680      1
   978   614   615      1
   979   615   616      1
   980   615   680      1
   981   616   617      1
   982   617   682      1
   983   617   684      1
   984   618   619      1
   985   619   620      1
   986   619   684      1
   987   620   621      1
   988   621   686      1
   989   621   688      1
   990   622   623      1
   991   623   624      1
   992   623   688      1
   993   624   625      1
   994   625   690      1
   995   625   692      1
   996   626   627      1
   997   627   628      1
   998   627   692      1
   999   628   629      1
  1000   629   694      1
  1001   629   696      1
  1002   630   631      1
  1003   631   632      1
  1004   631   696      1
  1005   632   633      1
  1006   633   698      1
  1007   633   700      1
  1008   634   635      1
  1009   635   636      1
  1010   635   700      1
  1011   636   637      1
  1012   637   702      1
  1013   637   704      1
  1014   638   639      1
  1015   639   640      1
  1016   639   704      1
  1017   640  1115      1
  1018   641  1116      1
  1019   642   643      1
  1020   643   706      1
  1021   644   645      1
  1022   645   646      1
  1023   645   706      1
  1024   646   647      1
  1025   647   708      1
  1026   647   710      1
  1027   648   649      1
  1028   649   650      1
  1029   649   710      1
  1030   650   651      1
  1031   651   712      1
  1032   651   714      1
  1033   652   653      1
  1034   653   654      1
  1035   653   714      1
  1036   654   655      1
  1037   655   716      1
  1038   655   718      1
  1039   656   657      1
  1040   657   658      1
  1041   657   718      1
  1042   658   659      1
  1043   659   720      1
  1044   659   722      1
  1045   660   661      1
  1046   661   662      1
  1047   661   722      1
  1048   662   663      1
  1049   663   724      1
  1050   663   726      1
  1051   664   665      1
  1052   665   666      1
  1053   665   726      1
  1054   666   667      1
  1055   667   728      1
  1056   667   730      1
  1057   668   669      1
  1058   669   670      1
  1059   669   730      1
  1060   670   671      1
  1061   671   732      1
  1062   671   734      1
  1063   672   673      1
  1064   673   674      1
  1065   673   734      1
  1066   674   675      1
  1067   675   736      1
  1068   675   738      1
  1069   676   677      1
  1070   677   678      1
  1071   677   738      1
  1072   678   679      1
  1073   679   740      1
  1074   679   742      1
  1075   680   681      1
  1076   681   682      1
  1077   681   742      1
  1078   682   683      1
  1079   683   744      1
  1080   683   746      1
  1081   684   685      1
  1082   685   686      1
  1083   685   746      1
  1084   686   687      1
  1085   687   748      1
  1086   687   750      1
  1087   688   689      1
  1088   689   690      1
  1089   689   750      1
  1090   690   691      1
  1091   691   752      1
  1092   691   754      1
  1093   692   693      1
  1094   693   694      1
  1095   693   754      1
  1096   694   695      1
  1097   695   756      1
  1098   695   758      1
  1099   696   697      1
  1100   697   698      1
  1101   697   758      1
  1102   698   699      1
  1103   699   760      1
  1104   699   762      1
  1105   700   701      1
  1106   701   702      1
  1107   701   762      1
  1108   702   703      1
  1109   703   764      1
  1110   703  1132      1
  1111   704   705      1
  1112   705  1121      1
  1113   705  1132      1
  1114   706   707      1
  1115   707   708      1
  1116   708   709      1
  1117   709   765      1
  1118   709   767      1
  1119   710   711      1
  1120   711   712      1
  1121   711   767      1
  1122   712   713      1
  1123   713   769      1
  1124   713   771      1
  1125   714   715      1
  1126   715   716      1
  1127   715   771      1
  1128   716   717      1
  1129   717   773      1
  1130   717   775      1
  1131   718   719      1
  1132   719   720      1
  1133   719   775      1
  1134   720   721      1
  1135   721   777      1
  1136   721   779      1
  1137   722   723      1
  1138   723   724      1
  1139   723   779      1
  1140   724   725      1
  1141   724  2238      1
  1142   725   781      1
  1143   725   783      1
  1144   726   727      1
  1145   727   728      1
  1146   727   783      1
  1147   728   729      1
  1148   729   785      1
  1149   729   787      1
  1150   730   731      1
  1151   731   732      1
  1152   731   787      1
  1153   732   733      1
  1154   733   789      1
  1155   733   791      1
  1156   734   735      1
  1157   735   736      1
  1158   735   791      1
  1159   736   737      1
  1160   737   793      1
  1161   737   795      1
  1162   738   739      1
  1163   739   740      1
  1164   739   795      1
  1165   740   741      1
  1166   741   797      1
  1167   741   799      1
  1168   742   743      1
  1169   743   744      1
  1170   743   799      1
  1171   744   745      1
  1172   745   801      1
  1173   745   803      1
  1174   746   747      1
  1175   747   748      1
  1176   747   803      1
  1177   748   749      1
  1178   749   805      1
  1179   749   807      1
  1180   750   751      1
  1181   751   752      1
  1182   751   807      1
  1183   752   753      1
  1184   753   809      1
  1185   753   811      1
  1186   754   755      1
  1187   755   756      1
  1188   755   811      1
  1189   756   757      1
  1190   757   813      1
  1191   757   815      1
  1192   758   759      1
  1193   759   760      1
  1194   759   815      1
  1195   760   761      1
  1196   761   817      1
  1197   761   818      1
  1198   762   763      1
  1199   762  2239      1
  1200   763   764      1
  1201   763   818      1
  1202   764  1131      1
  1203   765   766      1
  1204   766   819      1
  1205   767   768      1
  1206   768   769      1
  1207   768   819      1
  1208   769   770      1
  1209   770   821      1
  1210   770   823      1
  1211   771   772      1
  1212   772   773      1
  1213   772   823      1
  1214   773   774      1
  1215   774   825      1
  1216   774   827      1
  1217   775   776      1
  1218   776   777      1
  1219   776   827      1
  1220   777   778      1
  1221   778   829      1
  1222   778   831      1
  1223   779   780      1
  1224   780   781      1
  1225   780   831      1
  1226   781   782      1
  1227   782   833      1
  1228   782   835      1
  1229   783   784      1
  1230   784   785      1
  1231   784   835      1
  1232   785   786      1
  1233   786   837      1
  1234   786   839      1
  1235   787   788      1
  1236   788   789      1
  1237   788   839      1
  1238   789   790      1
  1239   790   841      1
  1240   790   843      1
  1241   791   792      1
  1242   792   793      1
  1243   792   843      1
  1244   793   794      1
  1245   794   845      1
  1246   794   847      1
  1247   795   796      1
  1248   796   797      1
  1249   796   847      1
  1250   797   798      1
  1251   798   849      1
  1252   798   851      1
  1253   799   800      1
  1254   800   801      1
  1255   800   851      1
  1256   801   802      1
  1257   802   853      1
  1258   802   855      1
  1259   802  2233      1
  1260   803   804      1
  1261   804   805      1
  1262   804   855      1
  1263   805   806      1
  1264   806   857      1
  1265   806   859      1
  1266   807   808      1
  1267   808   809      1
  1268   808   859      1
  1269   809   810      1
  1270   810   861      1
  1271   810   863      1
  1272   811   812      1
  1273   812   813      1
  1274   812   863      1
  1275   813   814      1
  1276   814   865      1
  1277   814   867      1
  1278   815   816      1
  1279   816   817      1
  1280   816   867      1
  1281   817  1146      1
  1282   818  1147      1
  1283   819   820      1
  1284   820   821      1
  1285   821   822      1
  1286   822   869      1
  1287   822   870      1
  1288   822  2236      1
  1289   823   824      1
  1290   824   825      1
  1291   824   870      1
  1292   825   826      1
  1293   826   872      1
  1294   826   874      1
  1295   827   828      1
  1296   828   829      1
  1297   828   874      1
  1298   829   830      1
  1299   830   876      1
  1300   830   878      1
  1301   831   832      1
  1302   832   833      1
  1303   832   878      1
  1304   833   834      1
  1305   834   880      1
  1306   834   882      1
  1307   835   836      1
  1308   836   837      1
  1309   836   882      1
  1310   837   838      1
  1311   838   884      1
  1312   838   886      1
  1313   839   840      1
  1314   840   841      1
  1315   840   886      1
  1316   841   842      1
  1317   842   888      1
  1318   842   890      1
  1319   843   844      1
  1320   844   845      1
  1321   844   890      1
  1322   845   846      1
  1323   846   892      1
  1324   846   894      1
  1325   847   848      1
  1326   848   849      1
  1327   848   894      1
  1328   849   850      1
  1329   850   896      1
  1330   850   898      1
  1331   851   852      1
  1332   852   853      1
  1333   852   898      1
  1334   853   854      1
  1335   854   900      1
  1336   854   902      1
  1337   855   856      1
  1338   856   857      1
  1339   856   902      1
  1340   857   858      1
  1341   858   904      1
  1342   858   906      1
  1343   859   860      1
  1344   860   861      1
  1345   860   906      1
  1346   861   862      1
  1347   862   908      1
  1348   862   910      1
  1349   863   864      1
  1350   864   865      1
  1351   864   910      1
  1352   865   866      1
  1353   866   912      1
  1354   866   913      1
  1355   867   868      1
  1356   868   913      1
  1357   868  1166      1
  1358   870   871      1
  1359   871   872      1
  1360   871   914      1
  1361   872   873      1
  1362   873   916      1
  1363   873   918      1
  1364   874   875      1
  1365   875   876      1
  1366   875   918      1
  1367   876   877      1
  1368   877   920      1
  1369   877   922      1
  1370   878   879      1
  1371   879   880      1
  1372   879   922      1
  1373   880   881      1
  1374   881   924      1
  1375   881   926      1
  1376   882   883      1
  1377   883   884      1
  1378   883   926      1
  1379   884   885      1
  1380   885   928      1
  1381   885   930      1
  1382   886   887      1
  1383   887   888      1
  1384   887   930      1
  1385   888   889      1
  1386   889   932      1
  1387   889   934      1
  1388   890   891      1
  1389   891   892      1
  1390   891   934      1
  1391   892   893      1
  1392   893   936      1
  1393   893   938      1
  1394   894   895      1
  1395   895   896      1
  1396   895   938      1
  1397   896   897      1
  1398   897   940      1
  1399   897   942      1
  1400   898   899      1
  1401   899   900      1
  1402   899   942      1
  1403   900   901      1
  1404   901   944      1
  1405   901   946      1
  1406   902   903      1
  1407   903   904      1
  1408   903   946      1
  1409   904   905      1
  1410   905   948      1
  1411   905   950      1
  1412   906   907      1
  1413   907   908      1
  1414   907   950      1
  1415   908   909      1
  1416   909   952      1
  1417   909   954      1
  1418   910   911      1
  1419   911   912      1
  1420   911   954      1
  1421   912  1191      1
  1422   913  1192      1
  1423   914   915      1
  1424   915   916      1
  1425   916   917      1
  1426   917   955      1
  1427   917   956      1
  1428   918   919      1
  1429   919   920      1
  1430   919   956      1
  1431   920   921      1
  1432   921   958      1
  1433   921   960      1
  1434   922   923      1
  1435   923   924      1
  1436   923   960      1
  1437   924   925      1
  1438   925   962      1
  1439   925   964      1
  1440   926   927      1
  1441   927   928      1
  1442   927   964      1
  1443   928   929      1
  1444   929   966      1
  1445   929   968      1
  1446   930   931      1
  1447   931   932      1
  1448   931   968      1
  1449   932   933      1
  1450   933   970      1
  1451   933   972      1
  1452   934   935      1
  1453   935   936      1
  1454   935   972      1
  1455   936   937      1
  1456   937   974      1
  1457   937   976      1
  1458   938   939      1
  1459   939   940      1
  1460   939   976      1
  1461   940   941      1
  1462   941   978      1
  1463   941   980      1
  1464   942   943      1
  1465   943   944      1
  1466   943   980      1
  1467   944   945      1
  1468   945   982      1
  1469   945   984      1
  1470   946   947      1
  1471   947   948      1
  1472   947   984      1
  1473   948   949      1
  1474   949   986      1
  1475   949   988      1
  1476   950   951      1
  1477   951   952      1
  1478   951   988      1
  1479   952   953      1
  1480   953  1253      1
  1481   953  1255      1
  1482   954  1219      1
  1483   956   957      1
  1484   957   958      1
  1485   957   990      1
  1486   958   959      1
  1487   959   992      1
  1488   959   994      1
  1489   960   961      1
  1490   961   962      1
  1491   961   994      1
  1492   962   963      1
  1493   963   996      1
  1494   963   998      1
  1495   964   965      1
  1496   965   966      1
  1497   965   998      1
  1498   966   967      1
  1499   967  1000      1
  1500   967  1002      1
  1501   968   969      1
  1502   969   970      1
  1503   969  1002      1
  1504   970   971      1
  1505   971  1004      1
  1506   971  1006      1
  1507   972   973      1
  1508   973   974      1
  1509   973  1006      1
  1510   974   975      1
  1511   975  1008      1
  1512   975  1010      1
  1513   976   977      1
  1514   977   978      1
  1515   977  1010      1
  1516   978   979      1
  1517   979  1012      1
  1518   979  1014      1
  1519   980   981      1
  1520   981   982      1
  1521   981  1014      1
  1522   982   983      1
  1523   983  1016      1
  1524   983  1018      1
  1525   984   985      1
  1526   985   986      1
  1527   985  1018      1
  1528   986   987      1
  1529   987  1020      1
  1530   987  1021      1
  1531   988   989      1
  1532   989  1021      1
  1533   989  1253      1
  1534   990   991      1
  1535   991   992      1
  1536   992   993      1
  1537   993  1022      1
  1538   994   995      1
  1539   995   996      1
  1540   995  1022      1
  1541   996   997      1
  1542   997  1024      1
  1543   997  1026      1
  1544   997  2244      1
  1545   998   999      1
  1546   999  1000      1
  1547   999  1026      1
  1548  1000  1001      1
  1549  1001  1028      1
  1550  1001  1030      1
  1551  1002  1003      1
  1552  1003  1004      1
  1553  1003  1030      1
  1554  1004  1005      1
  1555  1005  1032      1
  1556  1005  1034      1
  1557  1006  1007      1
  1558  1007  1008      1
  1559  1007  1034      1
  1560  1008  1009      1
  1561  1009  1036      1
  1562  1009  1038      1
  1563  1010  1011      1
  1564  1011  1012      1
  1565  1011  1038      1
  1566  1012  1013      1
  1567  1013  1040      1
  1568  1013  1042      1
  1569  1014  1015      1
  1570  1015  1016      1
  1571  1015  1042      1
  1572  1016  1017      1
  1573  1017  1044      1
  1574  1017  1046      1
  1575  1018  1019      1
  1576  1019  1020      1
  1577  1019  1046      1
  1578  1020  1291      1
  1579  1021  1292      1
  1580  1022  1023      1
  1581  1023  1024      1
  1582  1023  1048      1
  1583  1024  1025      1
  1584  1025  1050      1
  1585  1025  1052      1
  1586  1026  1027      1
  1587  1027  1028      1
  1588  1027  1052      1
  1589  1028  1029      1
  1590  1029  1054      1
  1591  1029  1056      1
  1592  1030  1031      1
  1593  1031  1032      1
  1594  1031  1056      1
  1595  1032  1033      1
  1596  1033  1058      1
  1597  1033  1060      1
  1598  1034  1035      1
  1599  1035  1036      1
  1600  1035  1060      1
  1601  1036  1037      1
  1602  1037  1062      1
  1603  1037  1064      1
  1604  1038  1039      1
  1605  1039  1040      1
  1606  1039  1064      1
  1607  1040  1041      1
  1608  1041  1066      1
  1609  1041  1068      1
  1610  1042  1043      1
  1611  1043  1044      1
  1612  1043  1068      1
  1613  1044  1045      1
  1614  1045  1070      1
  1615  1045  1382      1
  1616  1046  1047      1
  1617  1047  1335      1
  1618  1047  1382      1
  1619  1048  1049      1
  1620  1049  1050      1
  1621  1050  1051      1
  1622  1051  1071      1
  1623  1052  1053      1
  1624  1053  1054      1
  1625  1053  1071      1
  1626  1054  1055      1
  1627  1055  1073      1
  1628  1055  1075      1
  1629  1056  1057      1
  1630  1057  1058      1
  1631  1057  1075      1
  1632  1058  1059      1
  1633  1059  1077      1
  1634  1059  1079      1
  1635  1060  1061      1
  1636  1061  1062      1
  1637  1061  1079      1
  1638  1062  1063      1
  1639  1063  1081      1
  1640  1063  1083      1
  1641  1064  1065      1
  1642  1065  1066      1
  1643  1065  1083      1
  1644  1066  1067      1
  1645  1066  2235      1
  1646  1067  1085      1
  1647  1067  1086      1
  1648  1068  1069      1
  1649  1069  1070      1
  1650  1069  1086      1
  1651  1070  1381      1
  1652  1071  1072      1
  1653  1072  1073      1
  1654  1072  1087      1
  1655  1073  1074      1
  1656  1074  1089      1
  1657  1074  1091      1
  1658  1075  1076      1
  1659  1076  1077      1
  1660  1076  1091      1
  1661  1077  1078      1
  1662  1078  1093      1
  1663  1078  1095      1
  1664  1079  1080      1
  1665  1080  1081      1
  1666  1080  1095      1
  1667  1081  1082      1
  1668  1082  1097      1
  1669  1082  1099      1
  1670  1083  1084      1
  1671  1084  1085      1
  1672  1084  1099      1
  1673  1085  1434      1
  1674  1086  1435      1
  1675  1087  1088      1
  1676  1088  1089      1
  1677  1089  1090      1
  1678  1090  1101      1
  1679  1091  1092      1
  1680  1092  1093      1
  1681  1092  1101      1
  1682  1093  1094      1
  1683  1094  1103      1
  1684  1094  1105      1
  1685  1095  1096      1
  1686  1096  1097      1
  1687  1096  1105      1
  1688  1097  1098      1
  1689  1098  1107      1
  1690  1098  1108      1
  1691  1099  1100      1
  1692  1100  1108      1
  1693  1100  1490      1
  1694  1101  1102      1
  1695  1102  1103      1
  1696  1102  1109      1
  1697  1103  1104      1
  1698  1104  1110      1
  1699  1104  1112      1
  1700  1105  1106      1
  1701  1106  1107      1
  1702  1106  1112      1
  1703  1107  1552      1
  1704  1108  1553      1
  1705  1110  1111      1
  1706  1111  1113      1
  1707  1111  1686      1
  1708  1112  1617      1
  1709  1113  1114      1
  1710  1114  1117      1
  1711  1114  1119      1
  1712  1115  1121      1
  1713  1115  1123      1
  1714  1116  1117      1
  1715  1116  1123      1
  1716  1117  1118      1
  1717  1118  1125      1
  1718  1118  1127      1
  1719  1119  1120      1
  1720  1119  1687      1
  1721  1120  1127      1
  1722  1120  1754      1
  1723  1121  1122      1
  1724  1122  1134      1
  1725  1122  1136      1
  1726  1123  1124      1
  1727  1124  1125      1
  1728  1124  1136      1
  1729  1125  1126      1
  1730  1126  1138      1
  1731  1126  1140      1
  1732  1127  1128      1
  1733  1128  1129      1
  1734  1128  1140      1
  1735  1129  1130      1
  1736  1129  1755      1
  1737  1130  1142      1
  1738  1130  1144      1
  1739  1131  1148      1
  1740  1131  1150      1
  1741  1132  1133      1
  1742  1133  1134      1
  1743  1133  1150      1
  1744  1134  1135      1
  1745  1135  1152      1
  1746  1135  1154      1
  1747  1136  1137      1
  1748  1137  1138      1
  1749  1137  1154      1
  1750  1138  1139      1
  1751  1139  1156      1
  1752  1139  1158      1
  1753  1140  1141      1
  1754  1141  1142      1
  1755  1141  1158      1
  1756  1142  1143      1
  1757  1143  1160      1
  1758  1143  1162      1
  1759  1144  1145      1
  1760  1144  1819      1
  1761  1145  1162      1
  1762  1145  1877      1
  1763  1146  1166      1
  1764  1146  1168      1
  1765  1147  1148      1
  1766  1147  1168      1
  1767  1148  1149      1
  1768  1149  1170      1
  1769  1149  1172      1
  1770  1150  1151      1
  1771  1151  1152      1
  1772  1151  1172      1
  1773  1152  1153      1
  1774  1153  1174      1
  1775  1153  1176      1
  1776  1154  1155      1
  1777  1155  1156      1
  1778  1155  1176      1
  1779  1156  1157      1
  1780  1157  1178      1
  1781  1157  1180      1
  1782  1158  1159      1
  1783  1159  1160      1
  1784  1159  1180      1
  1785  1160  1161      1
  1786  1161  1182      1
  1787  1161  1184      1
  1788  1162  1163      1
  1789  1163  1164      1
  1790  1163  1184      1
  1791  1164  1165      1
  1792  1164  1878      1
  1793  1165  1186      1
  1794  1165  1188      1
  1795  1166  1167      1
  1796  1167  1193      1
  1797  1167  1195      1
  1798  1168  1169      1
  1799  1169  1170      1
  1800  1169  1195      1
  1801  1170  1171      1
  1802  1171  1197      1
  1803  1171  1199      1
  1804  1172  1173      1
  1805  1173  1174      1
  1806  1173  1199      1
  1807  1174  1175      1
  1808  1175  1201      1
  1809  1175  1203      1
  1810  1176  1177      1
  1811  1177  1178      1
  1812  1177  1203      1
  1813  1178  1179      1
  1814  1179  1205      1
  1815  1179  1207      1
  1816  1180  1181      1
  1817  1181  1182      1
  1818  1181  1207      1
  1819  1182  1183      1
  1820  1183  1209      1
  1821  1183  1211      1
  1822  1184  1185      1
  1823  1185  1186      1
  1824  1185  1211      1
  1825  1186  1187      1
  1826  1187  1213      1
  1827  1187  1215      1
  1828  1188  1189      1
  1829  1188  1932      1
  1830  1189  1215      1
  1831  1189  1981      1
  1832  1190  1217      1
  1833  1190  1981      1
  1834  1190  2026      1
  1835  1191  1220      1
  1836  1191  1222      1
  1837  1192  1193      1
  1838  1192  1222      1
  1839  1193  1194      1
  1840  1194  1224      1
  1841  1194  1226      1
  1842  1195  1196      1
  1843  1196  1197      1
  1844  1196  1226      1
  1845  1197  1198      1
  1846  1198  1228      1
  1847  1198  1230      1
  1848  1199  1200      1
  1849  1200  1201      1
  1850  1200  1230      1
  1851  1201  1202      1
  1852  1202  1232      1
  1853  1202  1234      1
  1854  1203  1204      1
  1855  1204  1205      1
  1856  1204  1234      1
  1857  1205  1206      1
  1858  1206  1236      1
  1859  1206  1238      1
  1860  1207  1208      1
  1861  1208  1209      1
  1862  1208  1238      1
  1863  1209  1210      1
  1864  1210  1240      1
  1865  1210  1242      1
  1866  1211  1212      1
  1867  1212  1213      1
  1868  1212  1242      1
  1869  1213  1214      1
  1870  1214  1244      1
  1871  1214  1246      1
  1872  1215  1216      1
  1873  1216  1217      1
  1874  1216  1246      1
  1875  1217  1218      1
  1876  1218  1248      1
  1877  1218  1250      1
  1878  1219  1220      1
  1879  1219  1255      1
  1880  1220  1221      1
  1881  1221  1257      1
  1882  1221  1259      1
  1883  1222  1223      1
  1884  1223  1224      1
  1885  1223  1259      1
  1886  1224  1225      1
  1887  1225  1261      1
  1888  1225  1263      1
  1889  1226  1227      1
  1890  1227  1228      1
  1891  1227  1263      1
  1892  1228  1229      1
  1893  1229  1265      1
  1894  1229  1267      1
  1895  1230  1231      1
  1896  1231  1232      1
  1897  1231  1267      1
  1898  1232  1233      1
  1899  1233  1269      1
  1900  1233  1271      1
  1901  1234  1235      1
  1902  1235  1236      1
  1903  1235  1271      1
  1904  1236  1237      1
  1905  1237  1273      1
  1906  1237  1275      1
  1907  1238  1239      1
  1908  1239  1240      1
  1909  1239  1275      1
  1910  1240  1241      1
  1911  1241  1277      1
  1912  1241  1279      1
  1913  1242  1243      1
  1914  1243  1244      1
  1915  1243  1279      1
  1916  1244  1245      1
  1917  1245  1281      1
  1918  1245  1283      1
  1919  1246  1247      1
  1920  1247  1248      1
  1921  1247  1283      1
  1922  1248  1249      1
  1923  1249  1285      1
  1924  1249  1287      1
  1925  1250  1251      1
  1926  1250  2027      1
  1927  1251  1287      1
  1928  1251  2067      1
  1929  1252  1289      1
  1930  1252  2067      1
  1931  1252  2102      1
  1932  1253  1254      1
  1933  1254  1293      1
  1934  1254  1295      1
  1935  1255  1256      1
  1936  1256  1257      1
  1937  1256  1295      1
  1938  1257  1258      1
  1939  1258  1297      1
  1940  1258  1299      1
  1941  1259  1260      1
  1942  1260  1261      1
  1943  1260  1299      1
  1944  1261  1262      1
  1945  1262  1301      1
  1946  1262  1303      1
  1947  1263  1264      1
  1948  1264  1265      1
  1949  1264  1303      1
  1950  1265  1266      1
  1951  1266  1305      1
  1952  1266  1307      1
  1953  1267  1268      1
  1954  1268  1269      1
  1955  1268  1307      1
  1956  1269  1270      1
  1957  1270  1309      1
  1958  1270  1311      1
  1959  1271  1272      1
  1960  1272  1273      1
  1961  1272  1311      1
  1962  1273  1274      1
  1963  1273  2243      1
  1964  1274  1313      1
  1965  1274  1315      1
  1966  1275  1276      1
  1967  1276  1277      1
  1968  1276  1315      1
  1969  1277  1278      1
  1970  1278  1317      1
  1971  1278  1319      1
  1972  1279  1280      1
  1973  1280  1281      1
  1974  1280  1319      1
  1975  1281  1282      1
  1976  1282  1321      1
  1977  1282  1323      1
  1978  1283  1284      1
  1979  1284  1285      1
  1980  1284  1323      1
  1981  1285  1286      1
  1982  1286  1325      1
  1983  1286  1327      1
  1984  1287  1288      1
  1985  1288  1289      1
  1986  1288  1327      1
  1987  1288  2229      1
  1988  1289  1290      1
  1989  1290  1329      1
  1990  1290  1331      1
  1991  1291  1335      1
  1992  1291  1337      1
  1993  1292  1293      1
  1994  1292  1337      1
  1995  1293  1294      1
  1996  1294  1339      1
  1997  1294  1341      1
  1998  1295  1296      1
  1999  1296  1297      1
  2000  1296  1341      1
  2001  1297  1298      1
  2002  1298  1343      1
  2003  1298  1345      1
  2004  1299  1300      1
  2005  1299  2225      1
  2006  1300  1301      1
  2007  1300  1345      1
  2008  1301  1302      1
  2009  1302  1347      1
  2010  1302  1349      1
  2011  1303  1304      1
  2012  1304  1305      1
  2013  1304  1349      1
  2014  1305  1306      1
  2015  1306  1351      1
  2016  1306  1353      1
  2017  1307  1308      1
  2018  1308  1309      1
  2019  1308  1353      1
  2020  1309  1310      1
  2021  1310  1355      1
  2022  1310  1357      1
  2023  1311  1312      1
  2024  1312  1313      1
  2025  1312  1357      1
  2026  1313  1314      1
  2027  1314  1359      1
  2028  1314  1361      1
  2029  1315  1316      1
  2030  1316  1317      1
  2031  1316  1361      1
  2032  1317  1318      1
  2033  1318  1363      1
  2034  1318  1365      1
  2035  1319  1320      1
  2036  1320  1321      1
  2037  1320  1365      1
  2038  1321  1322      1
  2039  1322  1367      1
  2040  1322  1369      1
  2041  1323  1324      1
  2042  1324  1325      1
  2043  1324  1369      1
  2044  1325  1326      1
  2045  1326  1371      1
  2046  1326  1373      1
  2047  1327  1328      1
  2048  1328  1329      1
  2049  1328  1373      1
  2050  1329  1330      1
  2051  1330  1375      1
  2052  1330  1377      1
  2053  1331  1332      1
  2054  1331  2103      1
  2055  1332  1333      1
  2056  1332  1377      1
  2057  1333  1334      1
  2058  1333  2105      1
  2059  1334  1379      1
  2060  1334  2160      1
  2061  1335  1336      1
  2062  1336  1384      1
  2063  1336  1386      1
  2064  1337  1338      1
  2065  1338  1339      1
  2066  1338  1386      1
  2067  1339  1340      1
  2068  1340  1388      1
  2069  1340  1390      1
  2070  1341  1342      1
  2071  1342  1343      1
  2072  1342  1390      1
  2073  1343  1344      1
  2074  1344  1392      1
  2075  1344  1394      1
  2076  1345  1346      1
  2077  1346  1347      1
  2078  1346  1394      1
  2079  1347  1348      1
  2080  1348  1396      1
  2081  1348  1398      1
  2082  1349  1350      1
  2083  1350  1351      1
  2084  1350  1398      1
  2085  1351  1352      1
  2086  1352  1400      1
  2087  1352  1402      1
  2088  1353  1354      1
  2089  1354  1355      1
  2090  1354  1402      1
  2091  1355  1356      1
  2092  1356  1404      1
  2093  1356  1406      1
  2094  1357  1358      1
  2095  1358  1359      1
  2096  1358  1406      1
  2097  1359  1360      1
  2098  1360  1408      1
  2099  1360  1410      1
  2100  1361  1362      1
  2101  1362  1363      1
  2102  1362  1410      1
  2103  1363  1364      1
  2104  1364  1412      1
  2105  1364  1414      1
  2106  1365  1366      1
  2107  1366  1367      1
  2108  1366  1414      1
  2109  1367  1368      1
  2110  1368  1416      1
  2111  1368  1418      1
  2112  1369  1370      1
  2113  1370  1371      1
  2114  1370  1418      1
  2115  1371  1372      1
  2116  1372  1420      1
  2117  1372  1422      1
  2118  1373  1374      1
  2119  1374  1375      1
  2120  1374  1422      1
  2121  1375  1376      1
  2122  1376  1424      1
  2123  1376  1426      1
  2124  1377  1378      1
  2125  1378  1379      1
  2126  1378  1426      1
  2127  1379  1380      1
  2128  1380  1428      1
  2129  1380  1430      1
  2130  1381  1436      1
  2131  1381  1438      1
  2132  1382  1383      1
  2133  1383  1384      1
  2134  1383  1438      1
  2135  1384  1385      1
  2136  1385  1440      1
  2137  1385  1442      1
  2138  1386  1387      1
  2139  1387  1388      1
  2140  1387  1442      1
  2141  1388  1389      1
  2142  1389  1444      1
  2143  1389  1446      1
  2144  1390  1391      1
  2145  1391  1392      1
  2146  1391  1446      1
  2147  1392  1393      1
  2148  1393  1448      1
  2149  1393  1450      1
  2150  1394  1395      1
  2151  1395  1396      1
  2152  1395  1450      1
  2153  1396  1397      1
  2154  1397  1452      1
  2155  1397  1454      1
  2156  1398  1399      1
  2157  1399  1400      1
  2158  1399  1454      1
  2159  1400  1401      1
  2160  1401  1456      1
  2161  1401  1458      1
  2162  1402  1403      1
  2163  1403  1404      1
  2164  1403  1458      1
  2165  1404  1405      1
  2166  1405  1460      1
  2167  1405  1462      1
  2168  1406  1407      1
  2169  1407  1408      1
  2170  1407  1462      1
  2171  1408  1409      1
  2172  1409  1464      1
  2173  1409  1466      1
  2174  1410  1411      1
  2175  1411  1412      1
  2176  1411  1466      1
  2177  1412  1413      1
  2178  1413  1468      1
  2179  1413  1470      1
  2180  1414  1415      1
  2181  1415  1416      1
  2182  1415  1470      1
  2183  1416  1417      1
  2184  1417  1472      1
  2185  1417  1474      1
  2186  1418  1419      1
  2187  1419  1420      1
  2188  1419  1474      1
  2189  1420  1421      1
  2190  1421  1476      1
  2191  1421  1478      1
  2192  1422  1423      1
  2193  1423  1424      1
  2194  1423  1478      1
  2195  1424  1425      1
  2196  1425  1480      1
  2197  1425  1482      1
  2198  1426  1427      1
  2199  1427  1428      1
  2200  1427  1482      1
  2201  1428  1429      1
  2202  1429  1484      1
  2203  1429  1486      1
  2204  1430  1431      1
  2205  1430  2161      1
  2206  1431  1432      1
  2207  1431  1486      1
  2208  1431  2237      1
  2209  1432  1433      1
  2210  1432  2163      1
  2211  1433  1488      1
  2212  1433  2199      1
  2213  1434  1490      1
  2214  1434  1492      1
  2215  1435  1436      1
  2216  1435  1492      1
  2217  1436  1437      1
  2218  1437  1494      1
  2219  1437  1496      1
  2220  1438  1439      1
  2221  1439  1440      1
  2222  1439  1496      1
  2223  1440  1441      1
  2224  1441  1498      1
  2225  1441  1500      1
  2226  1442  1443      1
  2227  1443  1444      1
  2228  1443  1500      1
  2229  1444  1445      1
  2230  1445  1502      1
  2231  1445  1504      1
  2232  1446  1447      1
  2233  1447  1448      1
  2234  1447  1504      1
  2235  1448  1449      1
  2236  1449  1506      1
  2237  1449  1508      1
  2238  1450  1451      1
  2239  1451  1452      1
  2240  1451  1508      1
  2241  1452  1453      1
  2242  1453  1510      1
  2243  1453  1512      1
  2244  1454  1455      1
  2245  1455  1456      1
  2246  1455  1512      1
  2247  1456  1457      1
  2248  1457  1514      1
  2249  1457  1516      1
  2250  1458  1459      1
  2251  1459  1460      1
  2252  1459  1516      1
  2253  1460  1461      1
  2254  1461  1518      1
  2255  1461  1520      1
  2256  1462  1463      1
  2257  1463  1464      1
  2258  1463  1520      1
  2259  1464  1465      1
  2260  1465  1522      1
  2261  1465  1524      1
  2262  1466  1467      1
  2263  1467  1468      1
  2264  1467  1524      1
  2265  1468  1469      1
  2266  1469  1526      1
  2267  1469  1528      1
  2268  1470  1471      1
  2269  1471  1472      1
  2270  1471  1528      1
  2271  1472  1473      1
  2272  1473  1530      1
  2273  1473  1532      1
  2274  1474  1475      1
  2275  1475  1476      1
  2276  1475  1532      1
  2277  1476  1477      1
  2278  1477  1534      1
  2279  1477  1536      1
  2280  1478  1479      1
  2281  1479  1480      1
  2282  1479  1536      1
  2283  1480  1481      1
  2284  1481  1538      1
  2285  1481  1540      1
  2286  1482  1483      1
  2287  1483  1484      1
  2288  1483  1540      1
  2289  1484  1485      1
  2290  1485  1542      1
  2291  1485  1544      1
  2292  1486  1487      1
  2293  1487  1488      1
  2294  1487  1544      1
  2295  1488  1489      1
  2296  1489  1546      1
  2297  1489  1548      1
  2298  1490  1491      1
  2299  1491  1554      1
  2300  1491  1556      1
  2301  1492  1493      1
  2302  1493  1494      1
  2303  1493  1556      1
  2304  1494  1495      1
  2305  1495  1558      1
  2306  1495  1560      1
  2307  1496  1497      1
  2308  1497  1498      1
  2309  1497  1560      1
  2310  1498  1499      1
  2311  1499  1562      1
  2312  1499  1564      1
  2313  1500  1501      1
  2314  1501  1502      1
  2315  1501  1564      1
  2316  1502  1503      1
  2317  1503  1566      1
  2318  1503  1568      1
  2319  1504  1505      1
  2320  1505  1506      1
  2321  1505  1568      1
  2322  1506  1507      1
  2323  1507  1570      1
  2324  1507  1572      1
  2325  1508  1509      1
  2326  1509  1510      1
  2327  1509  1572      1
  2328  1510  1511      1
  2329  1511  1574      1
  2330  1511  1576      1
  2331  1512  1513      1
  2332  1513  1514      1
  2333  1513  1576      1
  2334  1514  1515      1
  2335  1515  1578      1
  2336  1515  1580      1
  2337  1516  1517      1
  2338  1517  1518      1
  2339  1517  1580      1
  2340  1518  1519      1
  2341  1519  1582      1
  2342  1519  1584      1
  2343  1520  1521      1
  2344  1521  1522      1
  2345  1521  1584      1
  2346  1522  1523      1
  2347  1523  1586      1
  2348  1523  1588      1
  2349  1524  1525      1
  2350  1525  1526      1
  2351  1525  1588      1
  2352  1526  1527      1
  2353  1527  1590      1
  2354  1527  1592      1
  2355  1528  1529      1
  2356  1529  1530      1
  2357  1529  1592      1
  2358  1530  1531      1
  2359  1531  1594      1
  2360  1531  1596      1
  2361  1532  1533      1
  2362  1533  1534      1
  2363  1533  1596      1
  2364  1534  1535      1
  2365  1535  1598      1
  2366  1535  1600      1
  2367  1536  1537      1
  2368  1537  1538      1
  2369  1537  1600      1
  2370  1538  1539      1
  2371  1539  1602      1
  2372  1539  1604      1
  2373  1540  1541      1
  2374  1541  1542      1
  2375  1541  1604      1
  2376  1542  1543      1
  2377  1543  1606      1
  2378  1543  1608      1
  2379  1544  1545      1
  2380  1545  1546      1
  2381  1545  1608      1
  2382  1546  1547      1
  2383  1547  1610      1
  2384  1547  1612      1
  2385  1548  1549      1
  2386  1548  2200      1
  2387  1549  1550      1
  2388  1549  1612      1
  2389  1550  1551      1
  2390  1550  2202      1
  2391  1551  1614      1
  2392  1551  2221      1
  2393  1552  1618      1
  2394  1552  1620      1
  2395  1553  1554      1
  2396  1553  1620      1
  2397  1554  1555      1
  2398  1555  1622      1
  2399  1555  1624      1
  2400  1556  1557      1
  2401  1557  1558      1
  2402  1557  1624      1
  2403  1558  1559      1
  2404  1559  1626      1
  2405  1559  1628      1
  2406  1560  1561      1
  2407  1561  1562      1
  2408  1561  1628      1
  2409  1562  1563      1
  2410  1563  1630      1
  2411  1563  1632      1
  2412  1564  1565      1
  2413  1565  1566      1
  2414  1565  1632      1
  2415  1566  1567      1
  2416  1567  1634      1
  2417  1567  1636      1
  2418  1568  1569      1
  2419  1569  1570      1
  2420  1569  1636      1
  2421  1570  1571      1
  2422  1571  1638      1
  2423  1571  1640      1
  2424  1572  1573      1
  2425  1573  1574      1
  2426  1573  1640      1
  2427  1574  1575      1
  2428  1575  1642      1
  2429  1575  1644      1
  2430  1576  1577      1
  2431  1577  1578      1
  2432  1577  1644      1
  2433  1578  1579      1
  2434  1579  1646      1
  2435  1579  1648      1
  2436  1580  1581      1
  2437  1581  1582      1
  2438  1581  1648      1
  2439  1582  1583      1
  2440  1583  1650      1
  2441  1583  1652      1
  2442  1584  1585      1
  2443  1585  1586      1
  2444  1585  1652      1
  2445  1586  1587      1
  2446  1587  1654      1
  2447  1587  1656      1
  2448  1588  1589      1
  2449  1589  1590      1
  2450  1589  1656      1
  2451  1590  1591      1
  2452  1590  2226      1
  2453  1591  1658      1
  2454  1591  1660      1
  2455  1592  1593      1
  2456  1593  1594      1
  2457  1593  1660      1
  2458  1594  1595      1
  2459  1595  1662      1
  2460  1595  1664      1
  2461  1596  1597      1
  2462  1597  1598      1
  2463  1597  1664      1
  2464  1598  1599      1
  2465  1599  1666      1
  2466  1599  1668      1
  2467  1600  1601      1
  2468  1600  2240      1
  2469  1601  1602      1
  2470  1601  1668      1
  2471  1602  1603      1
  2472  1603  1670      1
  2473  1603  1672      1
  2474  1604  1605      1
  2475  1605  1606      1
  2476  1605  1672      1
  2477  1606  1607      1
  2478  1607  1674      1
  2479  1607  1676      1
  2480  1608  1609      1
  2481  1609  1610      1
  2482  1609  1676      1
  2483  1610  1611      1
  2484  1611  1678      1
  2485  1611  1680      1
  2486  1612  1613      1
  2487  1613  1614      1
  2488  1613  1680      1
  2489  1614  1615      1
  2490  1615  1682      1
  2491  1615  1684      1
  2492  1616  1684      1
  2493  1616  2221      1
  2494  1616  2222      1
  2495  1617  1618      1
  2496  1617  1686      1
  2497  1618  1619      1
  2498  1619  1688      1
  2499  1619  1690      1
  2500  1620  1621      1
  2501  1621  1622      1
  2502  1621  1690      1
  2503  1622  1623      1
  2504  1623  1692      1
  2505  1623  1694      1
  2506  1624  1625      1
  2507  1625  1626      1
  2508  1625  1694      1
  2509  1626  1627      1
  2510  1627  1696      1
  2511  1627  1698      1
  2512  1628  1629      1
  2513  1629  1630      1
  2514  1629  1698      1
  2515  1630  1631      1
  2516  1631  1700      1
  2517  1631  1702      1
  2518  1632  1633      1
  2519  1633  1634      1
  2520  1633  1702      1
  2521  1634  1635      1
  2522  1635  1704      1
  2523  1635  1706      1
  2524  1636  1637      1
  2525  1637  1638      1
  2526  1637  1706      1
  2527  1638  1639      1
  2528  1639  1708      1
  2529  1639  1710      1
  2530  1640  1641      1
  2531  1641  1642      1
  2532  1641  1710      1
  2533  1642  1643      1
  2534  1643  1712      1
  2535  1643  1714      1
  2536  1644  1645      1
  2537  1645  1646      1
  2538  1645  1714      1
  2539  1646  1647      1
  2540  1647  1716      1
  2541  1647  1718      1
  2542  1648  1649      1
  2543  1649  1650      1
  2544  1649  1718      1
  2545  1650  1651      1
  2546  1651  1720      1
  2547  1651  1722      1
  2548  1652  1653      1
  2549  1653  1654      1
  2550  1653  1722      1
  2551  1654  1655      1
  2552  1655  1724      1
  2553  1655  1726      1
  2554  1656  1657      1
  2555  1657  1658      1
  2556  1657  1726      1
  2557  1658  1659      1
  2558  1659  1728      1
  2559  1659  1730      1
  2560  1660  1661      1
  2561  1661  1662      1
  2562  1661  1730      1
  2563  1662  1663      1
  2564  1663  1732      1
  2565  1663  1734      1
  2566  1664  1665      1
  2567  1665  1666      1
  2568  1665  1734      1
  2569  1666  1667      1
  2570  1667  1736      1
  2571  1667  1738      1
  2572  1668  1669      1
  2573  1669  1670      1
  2574  1669  1738      1
  2575  1670  1671      1
  2576  1671  1740      1
  2577  1671  1742      1
  2578  1672  1673      1
  2579  1673  1674      1
  2580  1673  1742      1
  2581  1674  1675      1
  2582  1675  1744      1
  2583  1675  1746      1
  2584  1676  1677      1
  2585  1677  1678      1
  2586  1677  1746      1
  2587  1678  1679      1
  2588  1679  1748      1
  2589  1679  1750      1
  2590  1680  1681      1
  2591  1681  1682      1
  2592  1681  1750      1
  2593  1682  1683      1
  2594  1683  1752      1
  2595  1683  1753      1
  2596  1684  1685      1
  2597  1685  1753      1
  2598  1685  2275      1
  2599  1686  1687      1
  2600  1687  1688      1
  2601  1688  1689      1
  2602  1689  1754      1
  2603  1689  1756      1
  2604  1690  1691      1
  2605  1691  1692      1
  2606  1691  1756      1
  2607  1692  1693      1
  2608  1693  1758      1
  2609  1693  1760      1
  2610  1694  1695      1
  2611  1695  1696      1
  2612  1695  1760      1
  2613  1696  1697      1
  2614  1697  1762      1
  2615  1697  1764      1
  2616  1698  1699      1
  2617  1699  1700      1
  2618  1699  1764      1
  2619  1700  1701      1
  2620  1701  1766      1
  2621  1701  1768      1
  2622  1702  1703      1
  2623  1703  1704      1
  2624  1703  1768      1
  2625  1704  1705      1
  2626  1705  1770      1
  2627  1705  1772      1
  2628  1706  1707      1
  2629  1707  1708      1
  2630  1707  1772      1
  2631  1708  1709      1
  2632  1709  1774      1
  2633  1709  1776      1
  2634  1710  1711      1
  2635  1711  1712      1
  2636  1711  1776      1
  2637  1712  1713      1
  2638  1713  1778      1
  2639  1713  1780      1
  2640  1714  1715      1
  2641  1715  1716      1
  2642  1715  1780      1
  2643  1716  1717      1
  2644  1717  1782      1
  2645  1717  1784      1
  2646  1718  1719      1
  2647  1719  1720      1
  2648  1719  1784      1
  2649  1720  1721      1
  2650  1721  1786      1
  2651  1721  1788      1
  2652  1722  1723      1
  2653  1723  1724      1
  2654  1723  1788      1
  2655  1724  1725      1
  2656  1725  1790      1
  2657  1725  1792      1
  2658  1726  1727      1
  2659  1727  1728      1
  2660  1727  1792      1
  2661  1728  1729      1
  2662  1729  1794      1
  2663  1729  1796      1
  2664  1730  1731      1
  2665  1731  1732      1
  2666  1731  1796      1
  2667  1732  1733      1
  2668  1733  1798      1
  2669  1733  1800      1
  2670  1734  1735      1
  2671  1735  1736      1
  2672  1735  1800      1
  2673  1736  1737      1
  2674  1737  1802      1
  2675  1737  1804      1
  2676  1738  1739      1
  2677  1739  1740      1
  2678  1739  1804      1
  2679  1740  1741      1
  2680  1741  1806      1
  2681  1741  1808      1
  2682  1742  1743      1
  2683  1743  1744      1
  2684  1743  1808      1
  2685  1744  1745      1
  2686  1745  1810      1
  2687  1745  1812      1
  2688  1746  1747      1
  2689  1747  1748      1
  2690  1747  1812      1
  2691  1748  1749      1
  2692  1749  1814      1
  2693  1749  1816      1
  2694  1750  1751      1
  2695  1751  1752      1
  2696  1751  1816      1
  2697  1752  2276      1
  2698  1753  2277      1
  2699  1754  1755      1
  2700  1755  1818      1
  2701  1756  1757      1
  2702  1757  1758      1
  2703  1757  1818      1
  2704  1758  1759      1
  2705  1759  1820      1
  2706  1759  1822      1
  2707  1760  1761      1
  2708  1761  1762      1
  2709  1761  1822      1
  2710  1762  1763      1
  2711  1763  1824      1
  2712  1763  1826      1
  2713  1764  1765      1
  2714  1765  1766      1
  2715  1765  1826      1
  2716  1766  1767      1
  2717  1767  1828      1
  2718  1767  1830      1
  2719  1767  2242      1
  2720  1768  1769      1
  2721  1769  1770      1
  2722  1769  1830      1
  2723  1770  1771      1
  2724  1771  1832      1
  2725  1771  1834      1
  2726  1772  1773      1
  2727  1773  1774      1
  2728  1773  1834      1
  2729  1774  1775      1
  2730  1775  1836      1
  2731  1775  1838      1
  2732  1776  1777      1
  2733  1777  1778      1
  2734  1777  1838      1
  2735  1778  1779      1
  2736  1779  1840      1
  2737  1779  1842      1
  2738  1780  1781      1
  2739  1781  1782      1
  2740  1781  1842      1
  2741  1782  1783      1
  2742  1782  2241      1
  2743  1783  1844      1
  2744  1783  1846      1
  2745  1784  1785      1
  2746  1785  1786      1
  2747  1785  1846      1
  2748  1786  1787      1
  2749  1787  1848      1
  2750  1787  1850      1
  2751  1788  1789      1
  2752  1789  1790      1
  2753  1789  1850      1
  2754  1790  1791      1
  2755  1791  1852      1
  2756  1791  1854      1
  2757  1792  1793      1
  2758  1793  1794      1
  2759  1793  1854      1
  2760  1794  1795      1
  2761  1795  1856      1
  2762  1795  1858      1
  2763  1796  1797      1
  2764  1797  1798      1
  2765  1797  1858      1
  2766  1798  1799      1
  2767  1799  1860      1
  2768  1799  1862      1
  2769  1800  1801      1
  2770  1801  1802      1
  2771  1801  1862      1
  2772  1802  1803      1
  2773  1803  1864      1
  2774  1803  1866      1
  2775  1804  1805      1
  2776  1805  1806      1
  2777  1805  1866      1
  2778  1806  1807      1
  2779  1807  1868      1
  2780  1807  1870      1
  2781  1808  1809      1
  2782  1809  1810      1
  2783  1809  1870      1
  2784  1810  1811      1
  2785  1811  1872      1
  2786  1811  1874      1
  2787  1812  1813      1
  2788  1813  1814      1
  2789  1813  1874      1
  2790  1814  1815      1
  2791  1815  1876      1
  2792  1815  2278      1
  2793  1816  1817      1
  2794  1817  2279      1
  2795  1817  2280      1
  2796  1818  1819      1
  2797  1819  1820      1
  2798  1820  1821      1
  2799  1821  1877      1
  2800  1821  1879      1
  2801  1822  1823      1
  2802  1823  1824      1
  2803  1823  1879      1
  2804  1824  1825      1
  2805  1825  1881      1
  2806  1825  1883      1
  2807  1826  1827      1
  2808  1827  1828      1
  2809  1827  1883      1
  2810  1828  1829      1
  2811  1829  1885      1
  2812  1829  1887      1
  2813  1830  1831      1
  2814  1831  1832      1
  2815  1831  1887      1
  2816  1832  1833      1
  2817  1833  1889      1
  2818  1833  1891      1
  2819  1834  1835      1
  2820  1835  1836      1
  2821  1835  1891      1
  2822  1836  1837      1
  2823  1837  1893      1
  2824  1837  1895      1
  2825  1838  1839      1
  2826  1839  1840      1
  2827  1839  1895      1
  2828  1840  1841      1
  2829  1841  1897      1
  2830  1841  1899      1
  2831  1842  1843      1
  2832  1843  1844      1
  2833  1843  1899      1
  2834  1844  1845      1
  2835  1845  1901      1
  2836  1845  1903      1
  2837  1846  1847      1
  2838  1847  1848      1
  2839  1847  1903      1
  2840  1848  1849      1
  2841  1849  1905      1
  2842  1849  1907      1
  2843  1850  1851      1
  2844  1851  1852      1
  2845  1851  1907      1
  2846  1852  1853      1
  2847  1853  1909      1
  2848  1853  1911      1
  2849  1854  1855      1
  2850  1855  1856      1
  2851  1855  1911      1
  2852  1856  1857      1
  2853  1857  1913      1
  2854  1857  1915      1
  2855  1858  1859      1
  2856  1859  1860      1
  2857  1859  1915      1
  2858  1860  1861      1
  2859  1861  1917      1
  2860  1861  1919      1
  2861  1862  1863      1
  2862  1863  1864      1
  2863  1863  1919      1
  2864  1864  1865      1
  2865  1865  1921      1
  2866  1865  1923      1
  2867  1866  1867      1
  2868  1867  1868      1
  2869  1867  1923      1
  2870  1868  1869      1
  2871  1869  1925      1
  2872  1869  1927      1
  2873  1870  1871      1
  2874  1871  1872      1
  2875  1871  1927      1
  2876  1872  1873      1
  2877  1873  1929      1
  2878  1873  1930      1
  2879  1874  1875      1
  2880  1875  1876      1
  2881  1875  1930      1
  2882  1876  2281      1
  2883  1877  1878      1
  2884  1878  1931      1
  2885  1879  1880      1
  2886  1880  1881      1
  2887  1880  1931      1
  2888  1881  1882      1
  2889  1882  1933      1
  2890  1882  1935      1
  2891  1883  1884      1
  2892  1884  1885      1
  2893  1884  1935      1
  2894  1885  1886      1
  2895  1886  1937      1
  2896  1886  1939      1
  2897  1887  1888      1
  2898  1888  1889      1
  2899  1888  1939      1
  2900  1889  1890      1
  2901  1890  1941      1
  2902  1890  1943      1
  2903  1891  1892      1
  2904  1892  1893      1
  2905  1892  1943      1
  2906  1893  1894      1
  2907  1894  1945      1
  2908  1894  1947      1
  2909  1895  1896      1
  2910  1896  1897      1
  2911  1896  1947      1
  2912  1897  1898      1
  2913  1898  1949      1
  2914  1898  1951      1
  2915  1899  1900      1
  2916  1900  1901      1
  2917  1900  1951      1
  2918  1901  1902      1
  2919  1902  1953      1
  2920  1902  1955      1
  2921  1903  1904      1
  2922  1904  1905      1
  2923  1904  1955      1
  2924  1905  1906      1
  2925  1906  1957      1
  2926  1906  1959      1
  2927  1907  1908      1
  2928  1908  1909      1
  2929  1908  1959      1
  2930  1909  1910      1
  2931  1910  1961      1
  2932  1910  1963      1
  2933  1911  1912      1
  2934  1912  1913      1
  2935  1912  1963      1
  2936  1913  1914      1
  2937  1914  1965      1
  2938  1914  1967      1
  2939  1915  1916      1
  2940  1916  1917      1
  2941  1916  1967      1
  2942  1917  1918      1
  2943  1918  1969      1
  2944  1918  1971      1
  2945  1919  1920      1
  2946  1920  1921      1
  2947  1920  1971      1
  2948  1921  1922      1
  2949  1922  1973      1
  2950  1922  1975      1
  2951  1923  1924      1
  2952  1924  1925      1
  2953  1924  1975      1
  2954  1925  1926      1
  2955  1926  1977      1
  2956  1926  1979      1
  2957  1927  1928      1
  2958  1928  1929      1
  2959  1928  1979      1
  2960  1929  2282      1
  2961  1930  2283      1
  2962  1931  1932      1
  2963  1932  1933      1
  2964  1933  1934      1
  2965  1934  1981      1
  2966  1934  1982      1
  2967  1935  1936      1
  2968  1936  1937      1
  2969  1936  1982      1
  2970  1937  1938      1
  2971  1938  1984      1
  2972  1938  1986      1
  2973  1939  1940      1
  2974  1940  1941      1
  2975  1940  1986      1
  2976  1941  1942      1
  2977  1942  1988      1
  2978  1942  1990      1
  2979  1943  1944      1
  2980  1944  1945      1
  2981  1944  1990      1
  2982  1945  1946      1
  2983  1946  1992      1
  2984  1946  1994      1
  2985  1947  1948      1
  2986  1948  1949      1
  2987  1948  1994      1
  2988  1949  1950      1
  2989  1950  1996      1
  2990  1950  1998      1
  2991  1951  1952      1
  2992  1952  1953      1
  2993  1952  1998      1
  2994  1953  1954      1
  2995  1954  2000      1
  2996  1954  2002      1
  2997  1955  1956      1
  2998  1956  1957      1
  2999  1956  2002      1
  3000  1957  1958      1
  3001  1958  2004      1
  3002  1958  2006      1
  3003  1959  1960      1
  3004  1960  1961      1
  3005  1960  2006      1
  3006  1961  1962      1
  3007  1962  2008      1
  3008  1962  2010      1
  3009  1963  1964      1
  3010  1964  1965      1
  3011  1964  2010      1
  3012  1965  1966      1
  3013  1966  2012      1
  3014  1966  2014      1
  3015  1967  1968      1
  3016  1968  1969      1
  3017  1968  2014      1
  3018  1969  1970      1
  3019  1970  2016      1
  3020  1970  2018      1
  3021  1971  1972      1
  3022  1972  1973      1
  3023  1972  2018      1
  3024  1973  1974      1
  3025  1974  2020      1
  3026  1974  2022      1
  3027  1975  1976      1
  3028  1976  1977      1
  3029  1976  2022      1
  3030  1977  1978      1
  3031  1978  2024      1
  3032  1978  2025      1
  3033  1979  1980      1
  3034  1980  2025      1
  3035  1980  2284      1
  3036  1982  1983      1
  3037  1983  1984      1
  3038  1983  2026      1
  3039  1984  1985      1
  3040  1985  2028      1
  3041  1985  2030      1
  3042  1986  1987      1
  3043  1987  1988      1
  3044  1987  2030      1
  3045  1988  1989      1
  3046  1989  2032      1
  3047  1989  2034      1
  3048  1990  1991      1
  3049  1991  1992      1
  3050  1991  2034      1
  3051  1992  1993      1
  3052  1993  2036      1
  3053  1993  2038      1
  3054  1994  1995      1
  3055  1995  1996      1
  3056  1995  2038      1
  3057  1996  1997      1
  3058  1997  2040      1
  3059  1997  2042      1
  3060  1998  1999      1
  3061  1999  2000      1
  3062  1999  2042      1
  3063  2000  2001      1
  3064  2001  2044      1
  3065  2001  2046      1
  3066  2002  2003      1
  3067  2003  2004      1
  3068  2003  2046      1
  3069  2004  2005      1
  3070  2005  2048      1
  3071  2005  2050      1
  3072  2006  2007      1
  3073  2007  2008      1
  3074  2007  2050      1
  3075  2008  2009      1
  3076  2009  2052      1
  3077  2009  2054      1
  3078  2010  2011      1
  3079  2011  2012      1
  3080  2011  2054      1
  3081  2012  2013      1
  3082  2013  2056      1
  3083  2013  2058      1
  3084  2014  2015      1
  3085  2015  2016      1
  3086  2015  2058      1
  3087  2016  2017      1
  3088  2017  2060      1
  3089  2017  2062      1
  3090  2018  2019      1
  3091  2019  2020      1
  3092  2019  2062      1
  3093  2020  2021      1
  3094  2021  2064      1
  3095  2021  2066      1
  3096  2022  2023      1
  3097  2023  2024      1
  3098  2023  2066      1
  3099  2024  2285      1
  3100  2025  2286      1
  3101  2026  2027      1
  3102  2027  2028      1
  3103  2028  2029      1
  3104  2029  2067      1
  3105  2029  2068      1
  3106  2030  2031      1
  3107  2031  2032      1
  3108  2031  2068      1
  3109  2032  2033      1
  3110  2033  2070      1
  3111  2033  2072      1
  3112  2034  2035      1
  3113  2035  2036      1
  3114  2035  2072      1
  3115  2036  2037      1
  3116  2037  2074      1
  3117  2037  2076      1
  3118  2038  2039      1
  3119  2039  2040      1
  3120  2039  2076      1
  3121  2040  2041      1
  3122  2041  2078      1
  3123  2041  2080      1
  3124  2042  2043      1
  3125  2043  2044      1
  3126  2043  2080      1
  3127  2044  2045      1
  3128  2045  2082      1
  3129  2045  2084      1
  3130  2046  2047      1
  3131  2047  2048      1
  3132  2047  2084      1
  3133  2048  2049      1
  3134  2048  2231      1
  3135  2049  2086      1
  3136  2049  2088      1
  3137  2050  2051      1
  3138  2051  2052      1
  3139  2051  2088      1
  3140  2052  2053      1
  3141  2053  2090      1
  3142  2053  2092      1
  3143  2054  2055      1
  3144  2055  2056      1
  3145  2055  2092      1
  3146  2056  2057      1
  3147  2057  2094      1
  3148  2057  2096      1
  3149  2058  2059      1
  3150  2059  2060      1
  3151  2059  2096      1
  3152  2060  2061      1
  3153  2061  2098      1
  3154  2061  2100      1
  3155  2062  2063      1
  3156  2063  2064      1
  3157  2063  2100      1
  3158  2064  2065      1
  3159  2065  2287      1
  3160  2065  2288      1
  3161  2066  2289      1
  3162  2068  2069      1
  3163  2069  2070      1
  3164  2069  2102      1
  3165  2070  2071      1
  3166  2071  2104      1
  3167  2071  2106      1
  3168  2072  2073      1
  3169  2073  2074      1
  3170  2073  2106      1
  3171  2074  2075      1
  3172  2075  2108      1
  3173  2075  2110      1
  3174  2076  2077      1
  3175  2077  2078      1
  3176  2077  2110      1
  3177  2078  2079      1
  3178  2079  2112      1
  3179  2079  2114      1
  3180  2080  2081      1
  3181  2081  2082      1
  3182  2081  2114      1
  3183  2082  2083      1
  3184  2083  2116      1
  3185  2083  2118      1
  3186  2084  2085      1
  3187  2085  2086      1
  3188  2085  2118      1
  3189  2086  2087      1
  3190  2087  2120      1
  3191  2087  2122      1
  3192  2088  2089      1
  3193  2089  2090      1
  3194  2089  2122      1
  3195  2090  2091      1
  3196  2091  2124      1
  3197  2091  2126      1
  3198  2092  2093      1
  3199  2093  2094      1
  3200  2093  2126      1
  3201  2094  2095      1
  3202  2095  2128      1
  3203  2095  2130      1
  3204  2096  2097      1
  3205  2097  2098      1
  3206  2097  2130      1
  3207  2098  2099      1
  3208  2099  2132      1
  3209  2099  2133      1
  3210  2100  2101      1
  3211  2101  2133      1
  3212  2101  2290      1
  3213  2102  2103      1
  3214  2103  2104      1
  3215  2104  2105      1
  3216  2105  2134      1
  3217  2106  2107      1
  3218  2107  2108      1
  3219  2107  2134      1
  3220  2108  2109      1
  3221  2109  2136      1
  3222  2109  2138      1
  3223  2110  2111      1
  3224  2111  2112      1
  3225  2111  2138      1
  3226  2112  2113      1
  3227  2113  2140      1
  3228  2113  2142      1
  3229  2114  2115      1
  3230  2115  2116      1
  3231  2115  2142      1
  3232  2116  2117      1
  3233  2117  2144      1
  3234  2117  2146      1
  3235  2118  2119      1
  3236  2119  2120      1
  3237  2119  2146      1
  3238  2120  2121      1
  3239  2121  2148      1
  3240  2121  2150      1
  3241  2122  2123      1
  3242  2123  2124      1
  3243  2123  2150      1
  3244  2124  2125      1
  3245  2125  2152      1
  3246  2125  2154      1
  3247  2126  2127      1
  3248  2127  2128      1
  3249  2127  2154      1
  3250  2128  2129      1
  3251  2129  2156      1
  3252  2129  2158      1
  3253  2130  2131      1
  3254  2131  2132      1
  3255  2131  2158      1
  3256  2132  2291      1
  3257  2133  2292      1
  3258  2134  2135      1
  3259  2135  2136      1
  3260  2135  2160      1
  3261  2136  2137      1
  3262  2137  2162      1
  3263  2137  2164      1
  3264  2138  2139      1
  3265  2139  2140      1
  3266  2139  2164      1
  3267  2140  2141      1
  3268  2140  2232      1
  3269  2141  2166      1
  3270  2141  2168      1
  3271  2142  2143      1
  3272  2143  2144      1
  3273  2143  2168      1
  3274  2144  2145      1
  3275  2145  2170      1
  3276  2145  2172      1
  3277  2146  2147      1
  3278  2147  2148      1
  3279  2147  2172      1
  3280  2148  2149      1
  3281  2149  2174      1
  3282  2149  2176      1
  3283  2150  2151      1
  3284  2151  2152      1
  3285  2151  2176      1
  3286  2152  2153      1
  3287  2153  2178      1
  3288  2153  2180      1
  3289  2154  2155      1
  3290  2155  2156      1
  3291  2155  2180      1
  3292  2156  2157      1
  3293  2157  2182      1
  3294  2157  2293      1
  3295  2158  2159      1
  3296  2159  2294      1
  3297  2159  2295      1
  3298  2160  2161      1
  3299  2161  2162      1
  3300  2162  2163      1
  3301  2163  2183      1
  3302  2164  2165      1
  3303  2165  2166      1
  3304  2165  2183      1
  3305  2166  2167      1
  3306  2167  2185      1
  3307  2167  2187      1
  3308  2168  2169      1
  3309  2169  2170      1
  3310  2169  2187      1
  3311  2170  2171      1
  3312  2171  2189      1
  3313  2171  2191      1
  3314  2172  2173      1
  3315  2173  2174      1
  3316  2173  2191      1
  3317  2174  2175      1
  3318  2175  2193      1
  3319  2175  2195      1
  3320  2176  2177      1
  3321  2177  2178      1
  3322  2177  2195      1
  3323  2178  2179      1
  3324  2179  2197      1
  3325  2179  2198      1
  3326  2180  2181      1
  3327  2181  2182      1
  3328  2181  2198      1
  3329  2182  2296      1
  3330  2183  2184      1
  3331  2184  2185      1
  3332  2184  2199      1
  3333  2185  2186      1
  3334  2186  2201      1
  3335  2186  2203      1
  3336  2187  2188      1
  3337  2188  2189      1
  3338  2188  2203      1
  3339  2189  2190      1
  3340  2190  2205      1
  3341  2190  2207      1
  3342  2191  2192      1
  3343  2192  2193      1
  3344  2192  2207      1
  3345  2193  2194      1
  3346  2194  2209      1
  3347  2194  2211      1
  3348  2195  2196      1
  3349  2196  2197      1
  3350  2196  2211      1
  3351  2197  2297      1
  3352  2198  2298      1
  3353  2199  2200      1
  3354  2200  2201      1
  3355  2201  2202      1
  3356  2202  2213      1
  3357  2203  2204      1
  3358  2204  2205      1
  3359  2204  2213      1
  3360  2205  2206      1
  3361  2206  2215      1
  3362  2206  2217      1
  3363  2207  2208      1
  3364  2208  2209      1
  3365  2208  2217      1
  3366  2209  2210      1
  3367  2210  2219      1
  3368  2210  2220      1
  3369  2211  2212      1
  3370  2212  2220      1
  3371  2212  2299      1
  3372  2213  2214      1
  3373  2214  2215      1
  3374  2214  2221      1
  3375  2215  2216      1
  3376  2216  2222      1
  3377  2216  2224      1
  3378  2217  2218      1
  3379  2218  2219      1
  3380  2218  2224      1
  3381  2219  2300      1
  3382  2220  2301      1
  3383  2222  2223      1
  3384  2223  2302      1
  3385  2223  2303      1
  3386  2224  2304      1
  3387  2305  2306      1
  3388  2306  2307      1
  3389  2306  2308      1
  3390  2306  2309      1
  3391  2310  2311      1
  3392  2311  2312      1
  3393  2311  2313      1
  3394  2311  2314      1
  3395  2315  2316      1
  3396  2316  2317      1
  3397  2316  2318      1
  3398  2316  2319      1
  3399  2320  2321      1
  3400  2321  2322      1
  3401  2321  2323      1
  3402  2321  2324      1
  3403  2325  2326      1
  3404  2326  2327      1
  3405  2326  2328      1
  3406  2326  2329      1
  3407  2330  2331      1
  3408  2331  2332      1
  3409  2331  2333      1
  3410  2331  2334      1
  3411  2335  2336      1
  3412  2336  2337      1
  3413  2336  2338      1
  3414  2336  2339      1
  3415  2340  2341      1
  3416  2341  2342      1
  3417  2341  2343      1
  3418  2341  2344      1
  3419  2345  2346      1
  3420  2346  2347      1
  3421  2346  2348      1
  3422  2346  2349      1
  3423  2350  2351      1
  3424  2351  2352      1
  3425  2351  2353      1
  3426  2351  2354      1
  3427  2355  2356      1
  3428  2356  2357      1
  3429  2356  2358      1
  3430  2356  2359      1
  3431  2360  2361      1
  3432  2361  2362      1
  3433  2361  2363      1
  3434  2361  2364      1
  3435  2365  2366      1
  3436  2366  2367      1
  3437  2366  2368      1
  3438  2366  2369      1
  3439  2370  2371      1
  3440  2371  2372      1
  3441  2371  2373      1
  3442  2371  2374      1
  3443  2375  2376      1
  3444  2376  2377      1
  3445  2376  2378      1
  3446  2376  2379      1
  3447  2380  2381      1
  3448  2381  2382      1
  3449  2381  2383      1
  3450  2381  2384      1
  3451  2385  2386      1
  3452  2386  2387      1
  3453  2386  2388      1
  3454  2386  2389      1
  3455  2390  2391      1
  3456  2391  2392      1
  3457  2391  2393      1
  3458  2391  2394      1
  3459  2395  2396      1
  3460  2396  2397      1
  3461  2396  2398      1
  3462  2396  2399      1
  3463  2400  2401      1
  3464  2401  2402      1
  3465  2401  2403      1
  3466  2401  2404      1
  3467  2405  2406      2
  3468  2405  2407      1
  3469  2407  2408      1
  3470  2407  2409      1
  3471  2407  2410      1
  3472  2408  2411      1
  3473  2411  2412      1
  3474  2412  2413      1
  3475  2412  2414      1
  3476  2412  2415      1
  3477  2413  2416      1
  3478  2413  2417      1
  3479  2413  2418      1
  3480  2418  2419      1
  3481  2419  2420      1
  3482  2419  2421      1
  3483  2419  2422      1
  3484  2420  2423      1
  3485  2420  2424      1
  3486  2420  2425      1
  3487  2425  2426      1
  3488  2426  2427      1
  3489  2426  2428      1
  3490  2426  2429      1
  3491  2427  2430      1
  3492  2427  2431      1
  3493  2427  2432      1
  3494  2432  2433      1
  3495  2433  2434      1
  3496  2433  2435      1
  3497  2433  2436      1
  3498  2434  2437      1
  3499  2434  2438      1
  3500  2434  2439      1
  3501  2439  2440      2
  3502  2439  2441      1
  3503  2441  2442      1
  3504  2441  2443      1
  3505  2441  2444      1
  3506  2442  2445      1
  3507  2442  2446      1
  3508  2442  2447      1
  3509  2443  2448      1
  3510  2448  2449      2
  3511  2448  2450      1
  3512  2450  2451      1
  3513  2450  2452      1
  3514  2450  2453      1
  3515  2451  2454      1
  3516  2451  2455      1
  3517  2451  2456      1
  3518  2452  2457      1
  3519  2457  2458      1
  3520  2458  2459      1
  3521  2458  2460      1
  3522  2458  2461      1
  3523  2459  2462      1
  3524  2459  2463      1
  3525  2459  2464      1
  3526  2464  2465      1
  3527  2465  2466      1
  3528  2465  2467      1
  3529  2465  2468      1
  3530  2466  2469      1
  3531  2466  2470      1
  3532  2466  2471      1
  3533  2471  2472      1
  3534  2472  2473      1
  3535  2472  2474      1
  3536  2472  2475      1
  3537  2473  2476      1
  3538  2473  2477      1
  3539  2473  2478      1
  3540  2478  2479      1
  3541  2479  2480      1
  3542  2479  2481      1
  3543  2479  2482      1
  3544  2480  2483      1
  3545  2480  2484      1
  3546  2480  2485      1
  3547  2485  2486      2
  3548  2485  2487      1
  3549  2487  2488      1
  3550  2487  2489      1
  3551  2487  2490      1
  3552  2491  2492      2
  3553  2491  2493      1
  3554  2493  2494      1
  3555  2493  2495      1
  3556  2493  2496      1
  3557  2494  2497      1
  3558  2497  2498      1
  3559  2498  2499      1
  3560  2498  2500      1
  3561  2498  2501      1
  3562  2499  2502      1
  3563  2499  2503      1
  3564  2499  2504      1
  3565  2504  2505      1
  3566  2505  2506      1
  3567  2505  2507      1
  3568  2505  2508      1
  3569  2506  2509      1
  3570  2506  2510      1
  3571  2506  2511      1
  3572  2511  2512      1
  3573  2512  2513      1
  3574  2512  2514      1
  3575  2512  2515      1
  3576  2513  2516      1
  3577  2513  2517      1
  3578  2513  2518      1
  3579  2518  2519      1
  3580  2519  2520      1
  3581  2519  2521      1
  3582  2519  2522      1
  3583  2520  2523      1
  3584  2520  2524      1
  3585  2520  2525      1
  3586  2525  2526      2
  3587  2525  2527      1
  3588  2527  2528      1
  3589  2527  2529      1
  3590  2527  2530      1
  3591  2528  2531      1
  3592  2528  2532      1
  3593  2528  2533      1
  3594  2529  2534      1
  3595  2534  2535      2
  3596  2534  2536      1
  3597  2536  2537      1
  3598  2536  2538      1
  3599  2536  2539      1
  3600  2537  2540      1
  3601  2537  2541      1
  3602  2537  2542      1
  3603  2538  2543      1
  3604  2543  2544      1
  3605  2544  2545      1
  3606  2544  2546      1
  3607  2544  2547      1
  3608  2545  2548      1
  3609  2545  2549      1
  3610  2545  2550      1
  3611  2550  2551      1
  3612  2551  2552      1
  3613  2551  2553      1
  3614  2551  2554      1
  3615  2552  2555      1
  3616  2552  2556      1
  3617  2552  2557      1
  3618  2557  2558      1
  3619  2558  2559      1
  3620  2558  2560      1
  3621  2558  2561      1
  3622  2559  2562      1
  3623  2559  2563      1
  3624  2559  2564      1
  3625  2564  2565      1
  3626  2565  2566      1
  3627  2565  2567      1
  3628  2565  2568      1
  3629  2566  2569      1
  3630  2566  2570      1
  3631  2566  2571      1
  3632  2571  2572      2
  3633  2571  2573      1
  3634  2573  2574      1
  3635  2573  2575      1
  3636  2573  2576      1
  3637  2574  2577      1
  3638  2577  2578      2
  3639  2577  2579      1
  3640  2579  2580      1
  3641  2579  2581      1
  3642  2579  2582      1
  3643  2580  2583      1
  3644  2580  2584      1
  3645  2580  2585      1
  3646  2586  2587      2
  3647  2586  2588      1
  3648  2588  2589      1
  3649  2588  2590      1
  3650  2588  2591      1
  3651  2589  2592      1
  3652  2592  2593      1
  3653  2593  2594      1
  3654  2593  2595      1
  3655  2593  2596      1
  3656  2594  2597      1
  3657  2594  2598      1
  3658  2594  2599      1
  3659  2599  2600      1
  3660  2600  2601      1
  3661  2600  2602      1
  3662  2600  2603      1
  3663  2601  2604      1
  3664  2601  2605      1
  3665  2601  2606      1
  3666  2606  2607      1
  3667  2607  2608      1
  3668  2607  2609      1
  3669  2607  2610      1
  3670  2608  2611      1
  3671  2608  2612      1
  3672  2608  2613      1
  3673  2613  2614      1
  3674  2614  2615      1
  3675  2614  2616      1
  3676  2614  2617      1
  3677  2615  2618      1
  3678  2615  2619      1
  3679  2615  2620      1
  3680  2620  2621      2
  3681  2620  2622      1
  3682  2622  2623      1
  3683  2622  2624      1
  3684  2622  2625      1
  3685  2623  2626      1
  3686  2623  2627      1
  3687  2623  2628      1
  3688  2624  2629      1
  3689  2629  2630      2
  3690  2629  2631      1
  3691  2631  2632      1
  3692  2631  2633      1
  3693  2631  2634      1
  3694  2632  2635      1
  3695  2632  2636      1
  3696  2632  2637      1
  3697  2633  2638      1
  3698  2638  2639      1
  3699  2639  2640      1
  3700  2639  2641      1
  3701  2639  2642      1
  3702  2640  2643      1
  3703  2640  2644      1
  3704  2640  2645      1
  3705  2645  2646      1
  3706  2646  2647      1
  3707  2646  2648      1
  3708  2646  2649      1
  3709  2647  2650      1
  3710  2647  2651      1
  3711  2647  2652      1
  3712  2652  2653      1
  3713  2653  2654      1
  3714  2653  2655      1
  3715  2653  2656      1
  3716  2654  2657      1
  3717  2654  2658      1
  3718  2654  2659      1
  3719  2659  2660      1
  3720  2660  2661      1
  3721  2660  2662      1
  3722  2660  2663      1
  3723  2661  2664      1
  3724  2661  2665      1
  3725  2661  2666      1
  3726  2666  2667      2
  3727  2666  2668      1
  3728  2668  2669      1
  3729  2668  2670      1
  3730  2668  2671      1
  3731  2672  2673      2
  3732  2672  2674      1
  3733  2674  2675      1
  3734  2674  2676      1
  3735  2674  2677      1
  3736  2675  2678      1
  3737  2678  2679      1
  3738  2679  2680      1
  3739  2679  2681      1
  3740  2679  2682      1
  3741  2680  2683      1
  3742  2680  2684      1
  3743  2680  2685      1
  3744  2685  2686      1
  3745  2686  2687      1
  3746  2686  2688      1
  3747  2686  2689      1
  3748  2687  2690      1
  3749  2687  2691      1
  3750  2687  2692      1
  3751  2692  2693      1
  3752  2693  2694      1
  3753  2693  2695      1
  3754  2693  2696      1
  3755  2694  2697      1
  3756  2694  2698      1
  3757  2694  2699      1
  3758  2699  2700      1
  3759  2700  2701      1
  3760  2700  2702      1
  3761  2700  2703      1
  3762  2701  2704      1
  3763  2701  2705      1
  3764  2701  2706      1
  3765  2706  2707      2
  3766  2706  2708      1
  3767  2708  2709      1
  3768  2708  2710      1
  3769  2708  2711      1
  3770  2709  2712      1
  3771  2709  2713      1
  3772  2709  2714      1
  3773  2710  2715      1
  3774  2715  2716      2
  3775  2715  2717      1
  3776  2717  2718      1
  3777  2717  2719      1
  3778  2717  2720      1
  3779  2718  2721      1
  3780  2718  2722      1
  3781  2718  2723      1
  3782  2719  2724      1
  3783  2724  2725      1
  3784  2725  2726      1
  3785  2725  2727      1
  3786  2725  2728      1
  3787  2726  2729      1
  3788  2726  2730      1
  3789  2726  2731      1
  3790  2731  2732      1
  3791  2732  2733      1
  3792  2732  2734      1
  3793  2732  2735      1
  3794  2733  2736      1
  3795  2733  2737      1
  3796  2733  2738      1
  3797  2738  2739      1
  3798  2739  2740      1
  3799  2739  2741      1
  3800  2739  2742      1
  3801  2740  2743      1
  3802  2740  2744      1
  3803  2740  2745      1
  3804  2745  2746      1
  3805  2746  2747      1
  3806  2746  2748      1
  3807  2746  2749      1
  3808  2747  2750      1
  3809  2747  2751      1
  3810  2747  2752      1
  3811  2752  2753      2
  3812  2752  2754      1
  3813  2754  2755      1
  3814  2754  2756      1
  3815  2754  2757      1
  3816  2758  2759      2
  3817  2758  2760      1
  3818  2760  2761      1
  3819  2760  2762      1
  3820  2760  2763      1
  3821  2761  2764      1
  3822  2764  2765      1
  3823  2765  2766      1
  3824  2765  2767      1
  3825  2765  2768      1
  3826  2766  2769      1
  3827  2766  2770      1
  3828  2766  2771      1
  3829  2771  2772      1
  3830  2772  2773      1
  3831  2772  2774      1
  3832  2772  2775      1
  3833  2773  2776      1
  3834  2773  2777      1
  3835  2773  2778      1
  3836  2778  2779      1
  3837  2779  2780      1
  3838  2779  2781      1
  3839  2779  2782      1
  3840  2780  2783      1
  3841  2780  2784      1
  3842  2780  2785      1
  3843  2785  2786      1
  3844  2786  2787      1
  3845  2786  2788      1
  3846  2786  2789      1
  3847  2787  2790      1
  3848  2787  2791      1
  3849  2787  2792      1
  3850  2792  2793      2
  3851  2792  2794      1
  3852  2794  2795      1
  3853  2794  2796      1
  3854  2794  2797      1
  3855  2795  2798      1
  3856  2795  2799      1
  3857  2795  2800      1
  3858  2796  2801      1
  3859  2801  2802      2
  3860  2801  2803      1
  3861  2803  2804      1
  3862  2803  2805      1
  3863  2803  2806      1
  3864  2804  2807      1
  3865  2804  2808      1
  3866  2804  2809      1
  3867  2805  2810      1
  3868  2810  2811      1
  3869  2811  2812      1
  3870  2811  2813      1
  3871  2811  2814      1
  3872  2812  2815      1
  3873  2812  2816      1
  3874  2812  2817      1
  3875  2817  2818      1
  3876  2818  2819      1
  3877  2818  2820      1
  3878  2818  2821      1
  3879  2819  2822      1
  3880  2819  2823      1
  3881  2819  2824      1
  3882  2824  2825      1
  3883  2825  2826      1
  3884  2825  2827      1
  3885  2825  2828      1
  3886  2826  2829      1
  3887  2826  2830      1
  3888  2826  2831      1
  3889  2831  2832      1
  3890  2832  2833      1
  3891  2832  2834      1
  3892  2832  2835      1
  3893  2833  2836      1
  3894  2833  2837      1
  3895  2833  2838      1
  3896  2838  2839      2
  3897  2838  2840      1
  3898  2840  2841      1
  3899  2840  2842      1
  3900  2840  2843      1
  3901  2844  2845      2
  3902  2844  2846      1
  3903  2846  2847      1
  3904  2846  2848      1
  3905  2846  2849      1
  3906  2847  2850      1
  3907  2850  2851      1
  3908  2851  2852      1
  3909  2851  2853      1
  3910  2851  2854      1
  3911  2852  2855      1
  3912  2852  2856      1
  3913  2852  2857      1
  3914  2857  2858      1
  3915  2858  2859      1
  3916  2858  2860      1
  3917  2858  2861      1
  3918  2859  2862      1
  3919  2859  2863      1
  3920  2859  2864      1
  3921  2864  2865      1
  3922  2865  2866      1
  3923  2865  2867      1
  3924  2865  2868      1
  3925  2866  2869      1
  3926  2866  2870      1
  3927  2866  2871      1
  3928  2871  2872      1
  3929  2872  2873      1
  3930  2872  2874      1
  3931  2872  2875      1
  3932  2873  2876      1
  3933  2873  2877      1
  3934  2873  2878      1
  3935  2878  2879      2
  3936  2878  2880      1
  3937  2880  2881      1
  3938  2880  2882      1
  3939  2880  2883      1
  3940  2881  2884      1
  3941  2881  2885      1
  3942  2881  2886      1
  3943  2882  2887      1
  3944  2887  2888      2
  3945  2887  2889      1
  3946  2889  2890      1
  3947  2889  2891      1
  3948  2889  2892      1
  3949  2890  2893      1
  3950  2890  2894      1
  3951  2890  2895      1
  3952  2891  2896      1
  3953  2896  2897      1
  3954  2897  2898      1
  3955  2897  2899      1
  3956  2897  2900      1
  3957  2898  2901      1
  3958  2898  2902      1
  3959  2898  2903      1
  3960  2903  2904      1
  3961  2904  2905      1
  3962  2904  2906      1
  3963  2904  2907      1
  3964  2905  2908      1
  3965  2905  2909      1
  3966  2905  2910      1
  3967  2910  2911      1
  3968  2911  2912      1
  3969  2911  2913      1
  3970  2911  2914      1
  3971  2912  2915      1
  3972  2912  2916      1
  3973  2912  2917      1
  3974  2917  2918      1
  3975  2918  2919      1
  3976  2918  2920      1
  3977  2918  2921      1
  3978  2919  2922      1
  3979  2919  2923      1
  3980  2919  2924      1
  3981  2924  2925      2
  3982  2924  2926      1
  3983  2926  2927      1
  3984  2926  2928      1
  3985  2926  2929      1
  3986  2930  2931      2
  3987  2930  2932      1
  3988  2932  2933      1
  3989  2932  2934      1
  3990  2932  2935      1
  3991  2933  2936      1
  3992  2936  2937      1
  3993  2937  2938      1
  3994  2937  2939      1
  3995  2937  2940      1
  3996  2938  2941      1
  3997  2938  2942      1
  3998  2938  2943      1
  3999  2943  2944      1
  4000  2944  2945      1
  4001  2944  2946      1
  4002  2944  2947      1
  4003  2945  2948      1
  4004  2945  2949      1
  4005  2945  2950      1
  4006  2950  2951      1
  4007  2951  2952      1
  4008  2951  2953      1
  4009  2951  2954      1
  4010  2952  2955      1
  4011  2952  2956      1
  4012  2952  2957      1
  4013  2957  2958      1
  4014  2958  2959      1
  4015  2958  2960      1
  4016  2958  2961      1
  4017  2959  2962      1
  4018  2959  2963      1
  4019  2959  2964      1
  4020  2964  2965      2
  4021  2964  2966      1
  4022  2966  2967      1
  4023  2966  2968      1
  4024  2966  2969      1
  4025  2967  2970      1
  4026  2967  2971      1
  4027  2967  2972      1
  4028  2968  2973      1
  4029  2973  2974      2
  4030  2973  2975      1
  4031  2975  2976      1
  4032  2975  2977      1
  4033  2975  2978      1
  4034  2976  2979      1
  4035  2976  2980      1
  4036  2976  2981      1
  4037  2977  2982      1
  4038  2982  2983      1
  4039  2983  2984      1
  4040  2983  2985      1
  4041  2983  2986      1
  4042  2984  2987      1
  4043  2984  2988      1
  4044  2984  2989      1
  4045  2989  2990      1
  4046  2990  2991      1
  4047  2990  2992      1
  4048  2990  2993      1
  4049  2991  2994      1
  4050  2991  2995      1
  4051  2991  2996      1
  4052  2996  2997      1
  4053  2997  2998      1
  4054  2997  2999      1
  4055  2997  3000      1
  4056  2998  3001      1
  4057  2998  3002      1
  4058  2998  3003      1
  4059  3003  3004      1
  4060  3004  3005      1
  4061  3004  3006      1
  4062  3004  3007      1
  4063  3005  3008      1
  4064  3005  3009      1
  4065  3005  3010      1
  4066  3010  3011      2
  4067  3010  3012      1
  4068  3012  3013      1
  4069  3012  3014      1
  4070  3012  3015      1
  4071  3016  3017      2
  4072  3016  3018      1
  4073  3018  3019      1
  4074  3018  3020      1
  4075  3018  3021      1
  4076  3019  3022      1
  4077  3022  3023      1
  4078  3023  3024      1
  4079  3023  3025      1
  4080  3023  3026      1
  4081  3024  3027      1
  4082  3024  3028      1
  4083  3024  3029      1
  4084  3029  3030      1
  4085  3030  3031      1
  4086  3030  3032      1
  4087  3030  3033      1
  4088  3031  3034      1
  4089  3031  3035      1
  4090  3031  3036      1
  4091  3036  3037      1
  4092  3037  3038      1
  4093  3037  3039      1
  4094  3037  3040      1
  4095  3038  3041      1
  4096  3038  3042      1
  4097  3038  3043      1
  4098  3043  3044      1
  4099  3044  3045      1
  4100  3044  3046      1
  4101  3044  3047      1
  4102  3045  3048      1
  4103  3045  3049      1
  4104  3045  3050      1
  4105  3050  3051      2
  4106  3050  3052      1
  4107  3052  3053      1
  4108  3052  3054      1
  4109  3052  3055      1
  4110  3053  3056      1
  4111  3053  3057      1
  4112  3053  3058      1
  4113  3054  3059      1
  4114  3059  3060      2
  4115  3059  3061      1
  4116  3061  3062      1
  4117  3061  3063      1
  4118  3061  3064      1
  4119  3062  3065      1
  4120  3062  3066      1
  4121  3062  3067      1
  4122  3063  3068      1
  4123  3068  3069      1
  4124  3069  3070      1
  4125  3069  3071      1
  4126  3069  3072      1
  4127  3070  3073      1
  4128  3070  3074      1
  4129  3070  3075      1
  4130  3075  3076      1
  4131  3076  3077      1
  4132  3076  3078      1
  4133  3076  3079      1
  4134  3077  3080      1
  4135  3077  3081      1
  4136  3077  3082      1
  4137  3082  3083      1
  4138  3083  3084      1
  4139  3083  3085      1
  4140  3083  3086      1
  4141  3084  3087      1
  4142  3084  3088      1
  4143  3084  3089      1
  4144  3089  3090      1
  4145  3090  3091      1
  4146  3090  3092      1
  4147  3090  3093      1
  4148  3091  3094      1
  4149  3091  3095      1
  4150  3091  3096      1
  4151  3096  3097      2
  4152  3096  3098      1
  4153  3098  3099      1
  4154  3098  3100      1
  4155  3098  3101      1
  4156  3102  3103      2
  4157  3102  3104      1
  4158  3104  3105      1
  4159  3104  3106      1
  4160  3104  3107      1
  4161  3105  3108      1
  4162  3108  3109      1
  4163  3109  3110      1
  4164  3109  3111      1
  4165  3109  3112      1
  4166  3110  3113      1
  4167  3110  3114      1
  4168  3110  3115      1
  4169  3115  3116      1
  4170  3116  3117      1
  4171  3116  3118      1
  4172  3116  3119      1
  4173  3117  3120      1
  4174  3117  3121      1
  4175  3117  3122      1
  4176  3122  3123      1
  4177  3123  3124      1
  4178  3123  3125      1
  4179  3123  3126      1
  4180  3124  3127      1
  4181  3124  3128      1
  4182  3124  3129      1
  4183  3129  3130      1
  4184  3130  3131      1
  4185  3130  3132      1
  4186  3130  3133      1
  4187  3131  3134      1
  4188  3131  3135      1
  4189  3131  3136      1
  4190  3136  3137      2
  4191  3136  3138      1
  4192  3138  3139      1
  4193  3138  3140      1
  4194  3138  3141      1
  4195  3139  3142      1
  4196  3139  3143      1
  4197  3139  3144      1
  4198  3140  3145      1
  4199  3145  3146      2
  4200  3145  3147      1
  4201  3147  3148      1
  4202  3147  3149      1
  4203  3147  3150      1
  4204  3148  3151      1
  4205  3148  3152      1
  4206  3148  3153      1
  4207  3149  3154      1
  4208  3154  3155      1
  4209  3155  3156      1
  4210  3155  3157      1
  4211  3155  3158      1
  4212  3156  3159      1
  4213  3156  3160      1
  4214  3156  3161      1
  4215  3161  3162      1
  4216  3162  3163      1
  4217  3162  3164      1
  4218  3162  3165      1
  4219  3163  3166      1
  4220  3163  3167      1
  4221  3163  3168      1
  4222  3168  3169      1
  4223  3169  3170      1
  4224  3169  3171      1
  4225  3169  3172      1
  4226  3170  3173      1
  4227  3170  3174      1
  4228  3170  3175      1
  4229  3175  3176      1
  4230  3176  3177      1
  4231  3176  3178      1
  4232  3176  3179      1
  4233  3177  3180      1
  4234  3177  3181      1
  4235  3177  3182      1
  4236  3182  3183      2
  4237  3182  3184      1
  4238  3184  3185      1
  4239  3184  3186      1
  4240  3184  3187      1
  4241  3188  3189      2
  4242  3188  3190      1
  4243  3190  3191      1
  4244  3190  3192      1
  4245  3190  3193      1
  4246  3191  3194      1
  4247  3194  3195      1
  4248  3195  3196      1
  4249  3195  3197      1
  4250  3195  3198      1
  4251  3196  3199      1
  4252  3196  3200      1
  4253  3196  3201      1
  4254  3201  3202      1
  4255  3202  3203      1
  4256  3202  3204      1
  4257  3202  3205      1
  4258  3203  3206      1
  4259  3203  3207      1
  4260  3203  3208      1
  4261  3208  3209      1
  4262  3209  3210      1
  4263  3209  3211      1
  4264  3209  3212      1
  4265  3210  3213      1
  4266  3210  3214      1
  4267  3210  3215      1
  4268  3215  3216      1
  4269  3216  3217      1
  4270  3216  3218      1
  4271  3216  3219      1
  4272  3217  3220      1
  4273  3217  3221      1
  4274  3217  3222      1
  4275  3222  3223      2
  4276  3222  3224      1
  4277  3224  3225      1
  4278  3224  3226      1
  4279  3224  3227      1
  4280  3225  3228      1
  4281  3225  3229      1
  4282  3225  3230      1
  4283  3226  3231      1
  4284  3231  3232      2
  4285  3231  3233      1
  4286  3233  3234      1
  4287  3233  3235      1
  4288  3233  3236      1
  4289  3234  3237      1
  4290  3234  3238      1
  4291  3234  3239      1
  4292  3235  3240      1
  4293  3240  3241      1
  4294  3241  3242      1
  4295  3241  3243      1
  4296  3241  3244      1
  4297  3242  3245      1
  4298  3242  3246      1
  4299  3242  3247      1
  4300  3247  3248      1
  4301  3248  3249      1
  4302  3248  3250      1
  4303  3248  3251      1
  4304  3249  3252      1
  4305  3249  3253      1
  4306  3249  3254      1
  4307  3254  3255      1
  4308  3255  3256      1
  4309  3255  3257      1
  4310  3255  3258      1
  4311  3256  3259      1
  4312  3256  3260      1
  4313  3256  3261      1
  4314  3261  3262      1
  4315  3262  3263      1
  4316  3262  3264      1
  4317  3262  3265      1
  4318  3263  3266      1
  4319  3263  3267      1
  4320  3263  3268      1
  4321  3268  3269      2
  4322  3268  3270      1
  4323  3270  3271      1
  4324  3270  3272      1
  4325  3270  3273      1
  4326  3271  3274      1
  4327  3274  3275      2
  4328  3274  3276      1
  4329  3276  3277      1
  4330  3276  3278      1
  4331  3276  3279      1
  4332  3277  3280      1
  4333  3277  3281      1
  4334  3277  3282      1
  4335  3278  3283      1
  4336  3283  3284      1
  4337  3284  3285      1
  4338  3284  3286      1
  4339  3284  3287      1
  4340  3285  3288      1
  4341  3285  3289      1
  4342  3285  3290      1
  4343  3290  3291      2
  4344  3290  3292      1
  4345  3292  3293      1
  4346  3292  3294      1
  4347  3292  3295      1
  4348  3293  3296      1
  4349  3296  3297      1
  4350  3297  3298      1
  4351  3297  3299      1
  4352  3297  3300      1
  4353  3298  3301      1
  4354  3298  3302      1
  4355  3298  3303      1
  4356  3303  3304      2
  4357  3303  3305      1
  4358  3305  3306      1
  4359  3305  3307      1
  4360  3305  3308      1
  4361  3306  3309      1
  4362  3309  3310      2
  4363  3309  3311      1
  4364  3311  3312      1
  4365  3311  3313      1
  4366  3311  3314      1
  4367  3312  3315      1
  4368  3312  3316      1
  4369  3312  3317      1
  4370  3313  3318      1
  4371  3318  3319      1
  4372  3319  3320      1
  4373  3319  3321      1
  4374  3319  3322      1
  4375  3320  3323      1
  4376  3320  3324      1
  4377  3320  3325      1
  4378  3325  3326      1
  4379  3326  3327      1
  4380  3326  3328      1
  4381  3326  3329      1
  4382  3327  3330      1
  4383  3327  3331      1
  4384  3327  3332      1
  4385  3332  3333      1
  4386  3333  3334      1
  4387  3333  3335      1
  4388  3333  3336      1
  4389  3334  3337      1
  4390  3334  3338      1
  4391  3334  3339      1
  4392  3339  3340      2
  4393  3339  3341      1
  4394  3341  3342      1
  4395  3341  3343      1
  4396  3341  3344      1
  4397  3345  3346      2
  4398  3345  3347      1
  4399  3347  3348      1
  4400  3347  3349      1
  4401  3347  3350      1
  4402  3348  3351      1
  4403  3351  3352      1
  4404  3352  3353      1
  4405  3352  3354      1
  4406  3352  3355      1
  4407  3353  3356      1
  4408  3353  3357      1
  4409  3353  3358      1
  4410  3358  3359      1
  4411  3359  3360      1
  4412  3359  3361      1
  4413  3359  3362      1
  4414  3360  3363      1
  4415  3360  3364      1
  4416  3360  3365      1
  4417  3365  3366      1
  4418  3366  3367      1
  4419  3366  3368      1
  4420  3366  3369      1
  4421  3367  3370      1
  4422  3367  3371      1
  4423  3367  3372      1
  4424  3372  3373      1
  4425  3373  3374      1
  4426  3373  3375      1
  4427  3373  3376      1
  4428  3374  3377      1
  4429  3374  3378      1
  4430  3374  3379      1
  4431  3379  3380      2
  4432  3379  3381      1
  4433  3381  3382      1
  4434  3381  3383      1
  4435  3381  3384      1
  4436  3382  3385      1
  4437  3382  3386      1
  4438  3382  3387      1
  4439  3383  3388      1
  4440  3388  3389      2
  4441  3388  3390      1
  4442  3390  3391      1
  4443  3390  3392      1
  4444  3390  3393      1
  4445  3391  3394      1
  4446  3391  3395      1
  4447  3391  3396      1
  4448  3392  3397      1
  4449  3397  3398      1
  4450  3398  3399      1
  4451  3398  3400      1
  4452  3398  3401      1
  4453  3399  3402      1
  4454  3399  3403      1
  4455  3399  3404      1
  4456  3404  3405      1
  4457  3405  3406      1
  4458  3405  3407      1
  4459  3405  3408      1
  4460  3406  3409      1
  4461  3406  3410      1
  4462  3406  3411      1
  4463  3411  3412      1
  4464  3412  3413      1
  4465  3412  3414      1
  4466  3412  3415      1
  4467  3413  3416      1
  4468  3413  3417      1
  4469  3413  3418      1
  4470  3418  3419      1
  4471  3419  3420      1
  4472  3419  3421      1
  4473  3419  3422      1
  4474  3420  3423      1
  4475  3420  3424      1
  4476  3420  3425      1
  4477  3425  3426      2
  4478  3425  3427      1
  4479  3427  3428      1
  4480  3427  3429      1
  4481  3427  3430      1
  4482  3431  3432      2
  4483  3431  3433      1
  4484  3433  3434      1
  4485  3433  3435      1
  4486  3433  3436      1
  4487  3434  3437      1
  4488  3437  3438      1
  4489  3438  3439      1
  4490  3438  3440      1
  4491  3438  3441      1
  4492  3439  3442      1
  4493  3439  3443      1
  4494  3439  3444      1
  4495  3444  3445      1
  4496  3445  3446      1
  4497  3445  3447      1
  4498  3445  3448      1
  4499  3446  3449      1
  4500  3446  3450      1
  4501  3446  3451      1
  4502  3451  3452      1
  4503  3452  3453      1
  4504  3452  3454      1
  4505  3452  3455      1
  4506  3453  3456      1
  4507  3453  3457      1
  4508  3453  3458      1
  4509  3458  3459      1
  4510  3459  3460      1
  4511  3459  3461      1
  4512  3459  3462      1
  4513  3460  3463      1
  4514  3460  3464      1
  4515  3460  3465      1
  4516  3465  3466      2
  4517  3465  3467      1
  4518  3467  3468      1
  4519  3467  3469      1
  4520  3467  3470      1
  4521  3468  3471      1
  4522  3468  3472      1
  4523  3468  3473      1
  4524  3469  3474      1
  4525  3474  3475      2
  4526  3474  3476      1
  4527  3476  3477      1
  4528  3476  3478      1
  4529  3476  3479      1
  4530  3477  3480      1
  4531  3477  3481      1
  4532  3477  3482      1
  4533  3478  3483      1
  4534  3483  3484      1
  4535  3484  3485      1
  4536  3484  3486      1
  4537  3484  3487      1
  4538  3485  3488      1
  4539  3485  3489      1
  4540  3485  3490      1
  4541  3490  3491      1
  4542  3491  3492      1
  4543  3491  3493      1
  4544  3491  3494      1
  4545  3492  3495      1
  4546  3492  3496      1
  4547  3492  3497      1
  4548  3497  3498      1
  4549  3498  3499      1
  4550  3498  3500      1
  4551  3498  3501      1
  4552  3499  3502      1
  4553  3499  3503      1
  4554  3499  3504      1
  4555  3504  3505      1
  4556  3505  3506      1
  4557  3505  3507      1
  4558  3505  3508      1
  4559  3506  3509      1
  4560  3506  3510      1
  4561  3506  3511      1
  4562  3511  3512      2
  4563  3511  3513      1
  4564  3513  3514      1
  4565  3513  3515      1
  4566  3513  3516      1
  4567  3514  3517      1
  4568  3517  3518      2
  4569  3517  3519      1
  4570  3519  3520      1
  4571  3519  3521      1
  4572  3519  3522      1
  4573  3520  3523      1
  4574  3520  3524      1
  4575  3520  3525      1
  4576  3521  3526      1
  4577  3526  3527      1
  4578  3527  3528      1
  4579  3527  3529      1
  4580  3527  3530      1
  4581  3528  3531      1
  4582  3528  3532      1
  4583  3528  3533      1
  4584  3533  3534      2
  4585  3533  3535      1
  4586  3535  3536      1
  4587  3535  3537      1
  4588  3535  3538      1
  4589  3539  3540      2
  4590  3539  3541      1
  4591  3541  3542      1
  4592  3541  3543      1
  4593  3541  3544      1
  4594  3542  3545      1
  4595  3545  3546      1
  4596  3546  3547      1
  4597  3546  3548      1
  4598  3546  3549      1
  4599  3547  3550      1
  4600  3547  3551      1
  4601  3547  3552      1
  4602  3552  3553      1
  4603  3553  3554      1
  4604  3553  3555      1
  4605  3553  3556      1
  4606  3554  3557      1
  4607  3554  3558      1
  4608  3554  3559      1
  4609  3559  3560      1
  4610  3560  3561      1
  4611  3560  3562      1
  4612  3560  3563      1
  4613  3561  3564      1
  4614  3561  3565      1
  4615  3561  3566      1
  4616  3566  3567      1
  4617  3567  3568      1
  4618  3567  3569      1
  4619  3567  3570      1
  4620  3568  3571      1
  4621  3568  3572      1
  4622  3568  3573      1
  4623  3573  3574      2
  4624  3573  3575      1
  4625  3575  3576      1
  4626  3575  3577      1
  4627  3575  3578      1
  4628  3576  3579      1
  4629  3576  3580      1
  4630  3576  3581      1
  4631  3577  3582      1
  4632  3582  3583      2
  4633  3582  3584      1
  4634  3584  3585      1
  4635  3584  3586      1
  4636  3584  3587      1
  4637  3585  3588      1
  4638  3585  3589      1
  4639  3585  3590      1
  4640  3586  3591      1
  4641  3591  3592      1
  4642  3592  3593      1
  4643  3592  3594      1
  4644  3592  3595      1
  4645  3593  3596      1
  4646  3593  3597      1
  4647  3593  3598      1
  4648  3598  3599      1
  4649  3599  3600      1
  4650  3599  3601      1
  4651  3599  3602      1
  4652  3600  3603      1
  4653  3600  3604      1
  4654  3600  3605      1
  4655  3605  3606      1
  4656  3606  3607      1
  4657  3606  3608      1
  4658  3606  3609      1
  4659  3607  3610      1
  4660  3607  3611      1
  4661  3607  3612      1
  4662  3612  3613      1
  4663  3613  3614      1
  4664  3613  3615      1
  4665  3613  3616      1
  4666  3614  3617      1
  4667  3614  3618      1
  4668  3614  3619      1
  4669  3619  3620      2
  4670  3619  3621      1
  4671  3621  3622      1
  4672  3621  3623      1
  4673  3621  3624      1
  4674  3622  3625      1
  4675  3625  3626      2
  4676  3625  3627      1
  4677  3627  3628      1
  4678  3627  3629      1
  4679  3627  3630      1
  4680  3628  3631      1
  4681  3628  3632      1
  4682  3628  3633      1
  4683  3634  3635      2
  4684  3634  3636      1
  4685  3636  3637      1
  4686  3636  3638      1
  4687  3636  3639      1
  4688  3637  3640      1
  4689  3640  3641      1
  4690  3641  3642      1
  4691  3641  3643      1
  4692  3641  3644      1
  4693  3642  3645      1
  4694  3642  3646      1
  4695  3642  3647      1
  4696  3647  3648      1
  4697  3648  3649      1
  4698  3648  3650      1
  4699  3648  3651      1
  4700  3649  3652      1
  4701  3649  3653      1
  4702  3649  3654      1
  4703  3654  3655      1
  4704  3655  3656      1
  4705  3655  3657      1
  4706  3655  3658      1
  4707  3656  3659      1
  4708  3656  3660      1
  4709  3656  3661      1
  4710  3661  3662      1
  4711  3662  3663      1
  4712  3662  3664      1
  4713  3662  3665      1
  4714  3663  3666      1
  4715  3663  3667      1
  4716  3663  3668      1
  4717  3668  3669      2
  4718  3668  3670      1
  4719  3670  3671      1
  4720  3670  3672      1
  4721  3670  3673      1
  4722  3671  3674      1
  4723  3671  3675      1
  4724  3671  3676      1
  4725  3672  3677      1
  4726  3677  3678      2
  4727  3677  3679      1
  4728  3679  3680      1
  4729  3679  3681      1
  4730  3679  3682      1
  4731  3680  3683      1
  4732  3680  3684      1
  4733  3680  3685      1
  4734  3681  3686      1
  4735  3686  3687      1
  4736  3687  3688      1
  4737  3687  3689      1
  4738  3687  3690      1
  4739  3688  3691      1
  4740  3688  3692      1
  4741  3688  3693      1
  4742  3693  3694      1
  4743  3694  3695      1
  4744  3694  3696      1
  4745  3694  3697      1
  4746  3695  3698      1
  4747  3695  3699      1
  4748  3695  3700      1
  4749  3700  3701      1
  4750  3701  3702      1
  4751  3701  3703      1
  4752  3701  3704      1
  4753  3702  3705      1
  4754  3702  3706      1
  4755  3702  3707      1
  4756  3707  3708      1
  4757  3708  3709      1
  4758  3708  3710      1
  4759  3708  3711      1
  4760  3709  3712      1
  4761  3709  3713      1
  4762  3709  3714      1
  4763  3714  3715      2
  4764  3714  3716      1
  4765  3716  3717      1
  4766  3716  3718      1
  4767  3716  3719      1
  4768  3717  3720      1
  4769  3720  3721      2
  4770  3720  3722      1
  4771  3722  3723      1
  4772  3722  3724      1
  4773  3722  3725      1
  4774  3723  3726      1
  4775  3723  3727      1
  4776  3723  3728      1
  4777  3724  3729      1
  4778  3729  3730      1
  4779  3730  3731      1
  4780  3730  3732      1
  4781  3730  3733      1
  4782  3731  3734      1
  4783  3731  3735      1
  4784  3731  3736      1
  4785  3736  3737      2
  4786  3736  3738      1
  4787  3738  3739      1
  4788  3738  3740      1
  4789  3738  3741      1
  4790  3739  3742      1
  4791  3742  3743      1
  4792  3743  3744      1
  4793  3743  3745      1
  4794  3743  3746      1
  4795  3744  3747      1
  4796  3744  3748      1
  4797  3744  3749      1
  4798  3749  3750      2
  4799  3749  3751      1
  4800  3751  3752      1
  4801  3751  3753      1
  4802  3751  3754      1
  4803  3755  3756      2
  4804  3755  3757      1
  4805  3757  3758      1
  4806  3757  3759      1
  4807  3757  3760      1
  4808  3758  3761      1
  4809  3761  3762      1
  4810  3762  3763      1
  4811  3762  3764      1
  4812  3762  3765      1
  4813  3763  3766      1
  4814  3763  3767      1
  4815  3763  3768      1
  4816  3768  3769      1
  4817  3769  3770      1
  4818  3769  3771      1
  4819  3769  3772      1
  4820  3770  3773      1
  4821  3770  3774      1
  4822  3770  3775      1
  4823  3775  3776      1
  4824  3776  3777      1
  4825  3776  3778      1
  4826  3776  3779      1
  4827  3777  3780      1
  4828  3777  3781      1
  4829  3777  3782      1
  4830  3782  3783      1
  4831  3783  3784      1
  4832  3783  3785      1
  4833  3783  3786      1
  4834  3784  3787      1
  4835  3784  3788      1
  4836  3784  3789      1
  4837  3789  3790      2
  4838  3789  3791      1
  4839  3791  3792      1
  4840  3791  3793      1
  4841  3791  3794      1
  4842  3792  3795      1
  4843  3792  3796      1
  4844  3792  3797      1
  4845  3793  3798      1
  4846  3798  3799      2
  4847  3798  3800      1
  4848  3800  3801      1
  4849  3800  3802      1
  4850  3800  3803      1
  4851  3801  3804      1
  4852  3801  3805      1
  4853  3801  3806      1
  4854  3802  3807      1
  4855  3807  3808      1
  4856  3808  3809      1
  4857  3808  3810      1
  4858  3808  3811      1
  4859  3809  3812      1
  4860  3809  3813      1
  4861  3809  3814      1
  4862  3814  3815      1
  4863  3815  3816      1
  4864  3815  3817      1
  4865  3815  3818      1
  4866  3816  3819      1
  4867  3816  3820      1
  4868  3816  3821      1
  4869  3821  3822      1
  4870  3822  3823      1
  4871  3822  3824      1
  4872  3822  3825      1
  4873  3823  3826      1
  4874  3823  3827      1
  4875  3823  3828      1
  4876  3828  3829      1
  4877  3829  3830      1
  4878  3829  3831      1
  4879  3829  3832      1
  4880  3830  3833      1
  4881  3830  3834      1
  4882  3830  3835      1
  4883  3835  3836      2
  4884  3835  3837      1
  4885  3837  3838      1
  4886  3837  3839      1
  4887  3837  3840      1
  4888  3838  3841      1
  4889  3841  3842      2
  4890  3841  3843      1
  4891  3843  3844      1
  4892  3843  3845      1
  4893  3843  3846      1
  4894  3844  3847      1
  4895  3844  3848      1
  4896  3844  3849      1
  4897  3845  3850      1
  4898  3850  3851      1
  4899  3851  3852      1
  4900  3851  3853      1
  4901  3851  3854      1
  4902  3852  3855      1
  4903  3852  3856      1
  4904  3852  3857      1
  4905  3857  3858      2
  4906  3857  3859      1
  4907  3859  3860      1
  4908  3859  3861      1
  4909  3859  3862      1
  4910  3863  3864      2
  4911  3863  3865      1
  4912  3865  3866      1
  4913  3865  3867      1
  4914  3865  3868      1
  4915  3866  3869      1
  4916  3869  3870      1
  4917  3870  3871      1
  4918  3870  3872      1
  4919  3870  3873      1
  4920  3871  3874      1
  4921  3871  3875      1
  4922  3871  3876      1
  4923  3876  3877      1
  4924  3877  3878      1
  4925  3877  3879      1
  4926  3877  3880      1
  4927  3878  3881      1
  4928  3878  3882      1
  4929  3878  3883      1
  4930  3883  3884      1
  4931  3884  3885      1
  4932  3884  3886      1
  4933  3884  3887      1
  4934  3885  3888      1
  4935  3885  3889      1
  4936  3885  3890      1
  4937  3890  3891      1
  4938  3891  3892      1
  4939  3891  3893      1
  4940  3891  3894      1
  4941  3892  3895      1
  4942  3892  3896      1
  4943  3892  3897      1
  4944  3897  3898      2
  4945  3897  3899      1
  4946  3899  3900      1
  4947  3899  3901      1
  4948  3899  3902      1
  4949  3900  3903      1
  4950  3900  3904      1
  4951  3900  3905      1
  4952  3901  3906      1
  4953  3906  3907      2
  4954  3906  3908      1
  4955  3908  3909      1
  4956  3908  3910      1
  4957  3908  3911      1
  4958  3909  3912      1
  4959  3909  3913      1
  4960  3909  3914      1
  4961  3910  3915      1
  4962  3915  3916      1
  4963  3916  3917      1
  4964  3916  3918      1
  4965  3916  3919      1
  4966  3917  3920      1
  4967  3917  3921      1
  4968  3917  3922      1
  4969  3922  3923      1
  4970  3923  3924      1
  4971  3923  3925      1
  4972  3923  3926      1
  4973  3924  3927      1
  4974  3924  3928      1
  4975  3924  3929      1
  4976  3929  3930      1
  4977  3930  3931      1
  4978  3930  3932      1
  4979  3930  3933      1
  4980  3931  3934      1
  4981  3931  3935      1
  4982  3931  3936      1
  4983  3936  3937      1
  4984  3937  3938      1
  4985  3937  3939      1
  4986  3937  3940      1
  4987  3938  3941      1
  4988  3938  3942      1
  4989  3938  3943      1
  4990  3943  3944      2
  4991  3943  3945      1
  4992  3945  3946      1
  4993  3945  3947      1
  4994  3945  3948      1
  4995  3946  3949      1
  4996  3949  3950      2
  4997  3949  3951      1
  4998  3951  3952      1
  4999  3951  3953      1
  5000  3951  3954      1
  5001  3952  3955      1
  5002  3952  3956      1
  5003  3952  3957      1
  5004  3953  3958      1
  5005  3958  3959      1
  5006  3959  3960      1
  5007  3959  3961      1
  5008  3959  3962      1
  5009  3960  3963      1
  5010  3960  3964      1
  5011  3965  3966      2
  5012  3965  3967      1
  5013  3967  3968      1
  5014  3967  3969      1
  5015  3967  3970      1
  5016  3968  3971      1
  5017  3971  3972      1
  5018  3972  3973      1
  5019  3972  3974      1
  5020  3972  3975      1
  5021  3973  3976      1
  5022  3973  3977      1
  5023  3973  3978      1
  5024  3978  3979      1
  5025  3979  3980      1
  5026  3979  3981      1
  5027  3979  3982      1
  5028  3980  3983      1
  5029  3980  3984      1
  5030  3980  3985      1
  5031  3985  3986      1
  5032  3986  3987      1
  5033  3986  3988      1
  5034  3986  3989      1
  5035  3987  3990      1
  5036  3987  3991      1
  5037  3987  3992      1
  5038  3992  3993      1
  5039  3993  3994      1
  5040  3993  3995      1
  5041  3993  3996      1
  5042  3994  3997      1
  5043  3994  3998      1
  5044  3994  3999      1
  5045  3999  4000      2
  5046  3999  4001      1
  5047  4001  4002      1
  5048  4001  4003      1
  5049  4001  4004      1
  5050  4002  4005      1
  5051  4002  4006      1
  5052  4002  4007      1
  5053  4003  4008      1
  5054  4008  4009      2
  5055  4008  4010      1
  5056  4010  4011      1
  5057  4010  4012      1
  5058  4010  4013      1
  5059  4011  4014      1
  5060  4011  4015      1
  5061  4011  4016      1
  5062  4012  4017      1
  5063  4017  4018      1
  5064  4018  4019      1
  5065  4018  4020      1
  5066  4018  4021      1
  5067  4019  4022      1
  5068  4019  4023      1
  5069  4019  4024      1
  5070  4024  4025      1
  5071  4025  4026      1
  5072  4025  4027      1
  5073  4025  4028      1
  5074  4026  4029      1
  5075  4026  4030      1
  5076  4026  4031      1
  5077  4031  4032      1
  5078  4032  4033      1
  5079  4032  4034      1
  5080  4032  4035      1
  5081  4033  4036      1
  5082  4033  4037      1
  5083  4033  4038      1
  5084  4038  4039      1
  5085  4039  4040      1
  5086  4039  4041      1
  5087  4039  4042      1
  5088  4040  4043      1
  5089  4040  4044      1
  5090  4045  4046      2
  5091  4045  4047      1
  5092  4047  4048      1
  5093  4047  4049      1
  5094  4047  4050      1
  5095  4048  4051      1
  5096  4051  4052      1
  5097  4052  4053      1
  5098  4052  4054      1
  5099  4052  4055      1
  5100  4053  4056      1
  5101  4053  4057      1
  5102  4053  4058      1
  5103  4058  4059      1
  5104  4059  4060      1
  5105  4059  4061      1
  5106  4059  4062      1
  5107  4060  4063      1
  5108  4060  4064      1
  5109  4060  4065      1
  5110  4065  4066      1
  5111  4066  4067      1
  5112  4066  4068      1
  5113  4066  4069      1
  5114  4067  4070      1
  5115  4067  4071      1
  5116  4067  4072      1
  5117  4072  4073      1
  5118  4073  4074      1
  5119  4073  4075      1
  5120  4073  4076      1
  5121  4074  4077      1
  5122  4074  4078      1
  5123  4074  4079      1
  5124  4079  4080      2
  5125  4079  4081      1
  5126  4081  4082      1
  5127  4081  4083      1
  5128  4081  4084      1
  5129  4082  4085      1
  5130  4082  4086      1
  5131  4082  4087      1
  5132  4083  4088      1
  5133  4088  4089      2
  5134  4088  4090      1
  5135  4090  4091      1
  5136  4090  4092      1
  5137  4090  4093      1
  5138  4091  4094      1
  5139  4091  4095      1
  5140  4091  4096      1
  5141  4092  4097      1
  5142  4097  4098      1
  5143  4098  4099      1
  5144  4098  4100      1
  5145  4098  4101      1
  5146  4099  4102      1
  5147  4099  4103      1
  5148  4099  4104      1
  5149  4104  4105      1
  5150  4105  4106      1
  5151  4105  4107      1
  5152  4105  4108      1
  5153  4106  4109      1
  5154  4106  4110      1
  5155  4106  4111      1
  5156  4111  4112      1
  5157  4112  4113      1
  5158  4112  4114      1
  5159  4112  4115      1
  5160  4113  4116      1
  5161  4113  4117      1
  5162  4113  4118      1
  5163  4118  4119      1
  5164  4119  4120      1
  5165  4119  4121      1
  5166  4119  4122      1
  5167  4120  4123      1
  5168  4120  4124      1
  5169  4125  4126      2
  5170  4125  4127      1
  5171  4127  4128      1
  5172  4127  4129      1
  5173  4127  4130      1
  5174  4128  4131      1
  5175  4131  4132      1
  5176  4132  4133      1
  5177  4132  4134      1
  5178  4132  4135      1
  5179  4133  4136      1
  5180  4133  4137      1
  5181  4133  4138      1
  5182  4138  4139      1
  5183  4139  4140      1
  5184  4139  4141      1
  5185  4139  4142      1
  5186  4140  4143      1
  5187  4140  4144      1
  5188  4140  4145      1
  5189  4145  4146      1
  5190  4146  4147      1
  5191  4146  4148      1
  5192  4146  4149      1
  5193  4147  4150      1
  5194  4147  4151      1
  5195  4147  4152      1
  5196  4152  4153      1
  5197  4153  4154      1
  5198  4153  4155      1
  5199  4153  4156      1
  5200  4154  4157      1
  5201  4154  4158      1
  5202  4154  4159      1
  5203  4159  4160      2
  5204  4159  4161      1
  5205  4161  4162      1
  5206  4161  4163      1
  5207  4161  4164      1
  5208  4162  4165      1
  5209  4162  4166      1
  5210  4162  4167      1
  5211  4163  4168      1
  5212  4168  4169      2
  5213  4168  4170      1
  5214  4170  4171      1
  5215  4170  4172      1
  5216  4170  4173      1
  5217  4171  4174      1
  5218  4171  4175      1
  5219  4171  4176      1
  5220  4172  4177      1
  5221  4177  4178      1
  5222  4178  4179      1
  5223  4178  4180      1
  5224  4178  4181      1
  5225  4179  4182      1
  5226  4179  4183      1
  5227  4179  4184      1
  5228  4184  4185      1
  5229  4185  4186      1
  5230  4185  4187      1
  5231  4185  4188      1
  5232  4186  4189      1
  5233  4186  4190      1
  5234  4186  4191      1
  5235  4191  4192      1
  5236  4192  4193      1
  5237  4192  4194      1
  5238  4192  4195      1
  5239  4193  4196      1
  5240  4193  4197      1
  5241  4193  4198      1
  5242  4198  4199      1
  5243  4199  4200      1
  5244  4199  4201      1
  5245  4199  4202      1
  5246  4200  4203      1
  5247  4200  4204      1
  5248  4200  4205      1
  5249  4205  4206      2
  5250  4205  4207      1
  5251  4207  4208      1
  5252  4207  4209      1
  5253  4207  4210      1
  5254  4211  4212      2
  5255  4211  4213      1
  5256  4213  4214      1
  5257  4213  4215      1
  5258  4213  4216      1
  5259  4214  4217      1
  5260  4217  4218      1
  5261  4218  4219      1
  5262  4218  4220      1
  5263  4218  4221      1
  5264  4219  4222      1
  5265  4219  4223      1
  5266  4219  4224      1
  5267  4224  4225      1
  5268  4225  4226      1
  5269  4225  4227      1
  5270  4225  4228      1
  5271  4226  4229      1
  5272  4226  4230      1
  5273  4226  4231      1
  5274  4231  4232      1
  5275  4232  4233      1
  5276  4232  4234      1
  5277  4232  4235      1
  5278  4233  4236      1
  5279  4233  4237      1
  5280  4233  4238      1
  5281  4238  4239      1
  5282  4239  4240      1
  5283  4239  4241      1
  5284  4239  4242      1
  5285  4240  4243      1
  5286  4240  4244      1
  5287  4240  4245      1
  5288  4245  4246      2
  5289  4245  4247      1
  5290  4247  4248      1
  5291  4247  4249      1
  5292  4247  4250      1
  5293  4248  4251      1
  5294  4248  4252      1
  5295  4248  4253      1
  5296  4249  4254      1
  5297  4254  4255      2
  5298  4254  4256      1
  5299  4256  4257      1
  5300  4256  4258      1
  5301  4256  4259      1
  5302  4257  4260      1
  5303  4257  4261      1
  5304  4257  4262      1
  5305  4258  4263      1
  5306  4263  4264      1
  5307  4264  4265      1
  5308  4264  4266      1
  5309  4264  4267      1
  5310  4265  4268      1
  5311  4265  4269      1
  5312  4265  4270      1
  5313  4270  4271      1
  5314  4271  4272      1
  5315  4271  4273      1
  5316  4271  4274      1
  5317  4272  4275      1
  5318  4272  4276      1
  5319  4272  4277      1
  5320  4277  4278      1
  5321  4278  4279      1
  5322  4278  4280      1
  5323  4278  4281      1
  5324  4279  4282      1
  5325  4279  4283      1
  5326  4279  4284      1
  5327  4284  4285      1
  5328  4285  4286      1
  5329  4285  4287      1
  5330  4285  4288      1
  5331  4286  4289      1
  5332  4286  4290      1
  5333  4286  4291      1
  5334  4291  4292      2
  5335  4291  4293      1
  5336  4293  4294      1
  5337  4293  4295      1
  5338  4293  4296      1
  5339  4294  4297      1
  5340  4297  4298      2
  5341  4297  4299      1
  5342  4299  4300      1
  5343  4299  4301      1
  5344  4299  4302      1
  5345  4300  4303      1
  5346  4300  4304      1
  5347  4300  4305      1
  5348  4301  4306      1
  5349  4306  4307      1
  5350  4307  4308      1
  5351  4307  4309      1
  5352  4307  4310      1
  5353  4308  4311      1
  5354  4308  4312      1
  5355  2225  2405      1
  5356  2305  2488      1
  5357  2226  2491      1
  5358  2310  2581      1
  5359  2227  2586      1
  5360  2315  2669      1
  5361  2228  2672      1
  5362  2320  2755      1
  5363  2229  2758      1
  5364  2325  2841      1
  5365  2230  2844      1
  5366  2330  2927      1
  5367  2231  2930      1
  5368  2335  3013      1
  5369  2232  3016      1
  5370  2340  3099      1
  5371  2233  3102      1
  5372  2345  3185      1
  5373  2234  3188      1
  5374  2350  3342      1
  5375  2235  3345      1
  5376  2355  3428      1
  5377  2236  3431      1
  5378  2360  3536      1
  5379  2237  3539      1
  5380  2365  3629      1
  5381  2238  3634      1
  5382  2370  3752      1
  5383  2239  3755      1
  5384  2375  3860      1
  5385  2240  3863      1
  5386  2380  3960      1
  5387  2241  3965      1
  5388  2385  4040      1
  5389  2242  4045      1
  5390  2390  4120      1
  5391  2243  4125      1
  5392  2395  4208      1
  5393  2244  4211      1
  5394  2400  4308      1
