###
### Created by PolyChef-cpp17 on Thu Apr 17 10:29:11 2025
###

@<TRIPOS>MOLECULE
NO_INFO
6744 6744 1 0 0
SMALL
USER_CHARGES


@<TRIPOS>ATOM
      1 C          93.8712   59.6540   32.0205 C.cat     0      C_A    0.0000
      2 C          54.3000   27.9248   35.2179 C.cat     1      C_B    0.0000
      3 C          55.0323   69.6941   25.0193 C.cat     2      C_C    0.0000
      4 C          91.3651   18.3782    7.5485 C.cat     3      C_D    0.0000
      5 C          61.9342   89.4556   26.4812 C.cat     4      C_E    0.0000
      6 H         113.3443   13.1926    5.9967 H         5      C_F    0.0000
      7 C         114.0948   13.9549    6.3351 C.cat     5      C_F    0.0000
      8 H         109.1572   42.0316   19.7275 H         6      C_G    0.0000
      9 C         108.1925   42.5656   19.9353 C.cat     6      C_G    0.0000
     10 H          53.2597   42.7878   40.2879 H         7      C_H    0.0000
     11 C          52.5012   43.5878   40.4967 C.cat     7      C_H    0.0000
     12 H          97.4997   24.5022   44.2118 H         8      C_I    0.0000
     13 C          97.7189   25.0809   43.2760 C.cat     8      C_I    0.0000
     14 H         134.3488   51.2531   37.4602 H         9      C_J    0.0000
     15 C         133.4823   51.2713   38.1728 C.cat     9      C_J    0.0000
     16 H         119.8109   35.2008    9.9078 H        10      C_K    0.0000
     17 C         118.7469   35.2385   10.2618 C.cat    10      C_K    0.0000
     18 H         118.3321   70.8381   32.5589 H        11      C_L    0.0000
     19 C         117.4803   70.1518   32.3094 C.cat    11      C_L    0.0000
     20 H         119.9250   32.6109   34.3164 H        12      C_M    0.0000
     21 C         119.1652   32.0243   33.7356 C.cat    12      C_M    0.0000
     22 H          76.1676   24.4102    6.6777 H        13      C_N    0.0000
     23 C          76.3112   24.5381    7.7831 C.cat    13      C_N    0.0000
     24 H          83.2213   30.3591   25.6296 H        14      C_O    0.0000
     25 C          84.1303   29.7162   25.4908 C.cat    14      C_O    0.0000
     26 H          52.2228   47.2196   19.5986 H        15      C_P    0.0000
     27 C          52.7246   46.2513   19.3351 C.1      15      C_P    0.0000
     28 H          53.4388   46.4339   18.4892 H        15      C_P    0.0000
     29 H          29.4980   58.0571   40.7702 H        16      C_Q    0.0000
     30 C          28.7584   57.4087   41.3101 C.1      16      C_Q    0.0000
     31 H          28.9084   56.3447   40.9871 H        16      C_Q    0.0000
     32 H          37.6297    9.1878   17.0744 H        17      C_R    0.0000
     33 C          37.4429   10.2465   17.3957 C.1      17      C_R    0.0000
     34 H          37.5730   10.3139   18.5081 H        17      C_R    0.0000
     35 H          63.4741   83.6469   39.8374 H        18      C_S    0.0000
     36 C          63.3176   82.6499   40.3278 C.1      18      C_S    0.0000
     37 H          63.7949   82.6687   41.3431 H        18      C_S    0.0000
     38 H         112.1088   18.5618   37.1340 H        19      C_T    0.0000
     39 C         111.9570   18.0647   36.1396 C.1      19      C_T    0.0000
     40 H         110.9872   17.5010   36.1627 H        19      C_T    0.0000
     41 H          43.4424   42.5414    5.5493 H        20      C_U    0.0000
     42 C          43.1176   41.5284    5.9059 C.1      20      C_U    0.0000
     43 H          44.0049   40.9981    6.3422 H        20      C_U    0.0000
     44 H          70.6532   41.9547   22.7857 H        21      C_V    0.0000
     45 C          71.4407   42.7458   22.6725 C.1      21      C_V    0.0000
     46 H          71.3325   43.4847   23.5098 H        21      C_V    0.0000
     47 H         131.5598   23.6842   44.5881 H        22      C_W    0.0000
     48 C         131.6615   24.5001   43.8247 C.1      22      C_W    0.0000
     49 H         131.0129   24.2521   42.9434 H        22      C_W    0.0000
     50 H          19.1600   70.2717   40.7241 H        23      C_X    0.0000
     51 C          19.9716   70.8989   40.2693 C.1      23      C_X    0.0000
     52 H          19.5106   71.6006   39.5250 H        23      C_X    0.0000
     53 H          84.0733   78.0617   10.1984 H        24      C_Y    0.0000
     54 C          84.3300   79.1413   10.0328 C.1      24      C_Y    0.0000
     55 H          83.6145   79.5710    9.2829 H        24      C_Y    0.0000
     56 H          79.3237   87.3677   30.8634 H        25      C_Z    0.0000
     57 C          79.5031   88.1241   30.0544 C.1      25      C_Z    0.0000
     58 H          78.9482   87.8050   29.1330 H        25      C_Z    0.0000
     59 H          69.2270   19.9103   25.4333 H        26     C_AA    0.0000
     60 C          68.1231   19.8375   25.6204 C.1      26     C_AA    0.0000
     61 H          67.6176   19.5121   24.6731 H        26     C_AA    0.0000
     62 H         134.3790   11.5330   16.9804 H        27     C_AB    0.0000
     63 C         133.6403   12.2070   16.4715 C.1      27     C_AB    0.0000
     64 H         132.9003   11.5747   15.9134 H        27     C_AB    0.0000
     65 H          43.7793   82.7093   17.2976 H        28     C_AC    0.0000
     66 C          44.7902   83.1136   17.5687 C.1      28     C_AC    0.0000
     67 H          44.9497   82.9761   18.6708 H        28     C_AC    0.0000
     68 H          33.0219   20.0357   31.2279 H        29     C_AD    0.0000
     69 C          32.5042   21.0033   31.4617 C.1      29     C_AD    0.0000
     70 H          32.5651   21.6713   30.5623 H        29     C_AD    0.0000
     71 C          21.9001   55.8107   21.9924 C.2      30     C_AE    0.0000
     72 H          21.6003   55.5647   20.9491 H        30     C_AE    0.0000
     73 H          21.5145   55.0277   22.6830 H        30     C_AE    0.0000
     74 H          21.4752   56.7993   22.2769 H        30     C_AE    0.0000
     75 C          83.8889   72.6112   33.6333 C.2      31     C_AF    0.0000
     76 H          83.0242   72.0552   34.0597 H        31     C_AF    0.0000
     77 H          83.9983   72.3559   32.5556 H        31     C_AF    0.0000
     78 H          84.8170   72.3280   34.1785 H        31     C_AF    0.0000
     79 C          28.7895   34.5796   21.5824 C.2      32     C_AG    0.0000
     80 H          27.7120   34.3145   21.6686 H        32     C_AG    0.0000
     81 H          29.3762   33.6680   21.3306 H        32     C_AG    0.0000
     82 H          28.9212   35.3399   20.7803 H        32     C_AG    0.0000
     83 C         120.9852   49.3878    7.2859 C.2      33     C_AH    0.0000
     84 H         121.2271   50.3487    7.7927 H        33     C_AH    0.0000
     85 H         119.8855   49.3182    7.1292 H        33     C_AH    0.0000
     86 H         121.3249   48.5384    7.9199 H        33     C_AH    0.0000
     87 C          22.1460   10.2077   43.5435 C.2      34     C_AI    0.0000
     88 H          22.0987    9.3583   42.8259 H        34     C_AI    0.0000
     89 H          23.2102   10.4471   43.7645 H        34     C_AI    0.0000
     90 H          21.6248    9.9263   44.4858 H        34     C_AI    0.0000
     91 C         111.4907   63.5261    7.7290 C.2      35     C_AJ    0.0000
     92 H         110.4948   63.1552    7.3983 H        35     C_AJ    0.0000
     93 H         111.9281   62.8105    8.4606 H        35     C_AJ    0.0000
     94 H         112.1645   63.6152    6.8477 H        35     C_AJ    0.0000
     95 C         109.6902   89.3520   43.7051 C.2      36     C_AK    0.0000
     96 H         110.7965   89.2340   43.7339 H        36     C_AK    0.0000
     97 H         109.2816   89.2668   44.7369 H        36     C_AK    0.0000
     98 H         109.4346   90.3506   43.2853 H        36     C_AK    0.0000
     99 C          40.6947   70.9743   44.6748 C.2      37     C_AL    0.0000
    100 H          40.2882   70.9771   43.6388 H        37     C_AL    0.0000
    101 H          40.1359   71.7112   45.2940 H        37     C_AL    0.0000
    102 H          40.5823   69.9580   45.1145 H        37     C_AL    0.0000
    103 C          58.3618   18.5265   12.0193 C.2      38     C_AM    0.0000
    104 H          57.6433   19.2789   12.4150 H        38     C_AM    0.0000
    105 H          57.9383   17.5056   12.1497 H        38     C_AM    0.0000
    106 H          59.3232   18.6041   12.5747 H        38     C_AM    0.0000
    107 C         127.8340   89.3111   33.0476 C.2      39     C_AN    0.0000
    108 H         127.5654   88.7560   32.1211 H        39     C_AN    0.0000
    109 H         127.0246   90.0343   33.2940 H        39     C_AN    0.0000
    110 H         128.7880   89.8615   32.8866 H        39     C_AN    0.0000
    111 C          67.9182   74.0161   14.8608 C.2      40     C_AO    0.0000
    112 H          69.0025   73.9787   14.6127 H        40     C_AO    0.0000
    113 H          67.5822   73.0126   15.2056 H        40     C_AO    0.0000
    114 H          67.3408   74.3109   13.9560 H        40     C_AO    0.0000
    115 C          21.0257   27.5339    5.0029 C.2      41     C_AP    0.0000
    116 H          20.4532   27.5364    4.0485 H        41     C_AP    0.0000
    117 H          21.8955   26.8456    4.9113 H        41     C_AP    0.0000
    118 H          20.3654   27.1905    5.8305 H        41     C_AP    0.0000
    119 C          65.7000   60.4863   31.8496 C.2      42     C_AQ    0.0000
    120 H          65.8660   59.4322   31.5334 H        42     C_AQ    0.0000
    121 H          66.5509   61.1150   31.5041 H        42     C_AQ    0.0000
    122 H          64.7533   60.8630   31.4016 H        42     C_AQ    0.0000
    123 C         129.2593   64.6621   13.6788 C.2      43     C_AR    0.0000
    124 H         128.4587   65.3517   14.0283 H        43     C_AR    0.0000
    125 H         130.0314   64.5579   14.4735 H        43     C_AR    0.0000
    126 H         129.7276   65.0746   12.7572 H        43     C_AR    0.0000
    127 C          75.3701   16.3096   44.9047 C.2      44     C_AS    0.0000
    128 H          75.4462   17.3506   44.5185 H        44     C_AS    0.0000
    129 H          75.5477   16.3082   46.0034 H        44     C_AS    0.0000
    130 H          76.1325   15.6717   44.4040 H        44     C_AS    0.0000
    131 C         129.3179   12.0038   31.6108 C.2      45     C_AT    0.0000
    132 H         130.0899   12.3252   32.3452 H        45     C_AT    0.0000
    133 H         129.7637   11.9795   30.5913 H        45     C_AT    0.0000
    134 H         128.9501   10.9883   31.8800 H        45     C_AT    0.0000
    135 C          90.1451   61.0008   10.0286 C.2      46     C_AU    0.0000
    136 H          91.0643   60.3975    9.8558 H        46     C_AU    0.0000
    137 H          90.4302   62.0475   10.2772 H        46     C_AU    0.0000
    138 H          89.5190   60.9945    9.1084 H        46     C_AU    0.0000
    139 C          31.5978   85.5440    8.4929 C.2      47     C_AV    0.0000
    140 H          32.5684   86.0838    8.5652 H        47     C_AV    0.0000
    141 H          31.3237   85.1391    9.4927 H        47     C_AV    0.0000
    142 H          31.6926   84.7066    7.7659 H        47     C_AV    0.0000
    143 C          23.6393   85.8292   22.4700 C.2      48     C_AW    0.0000
    144 H          24.1795   85.0985   21.8273 H        48     C_AW    0.0000
    145 H          22.7003   86.1452   21.9629 H        48     C_AW    0.0000
    146 H          24.2854   86.7186   22.6440 H        48     C_AW    0.0000
    147 C          97.6579   38.8672    9.5017 C.2      49     C_AX    0.0000
    148 H          96.9677   38.7940   10.3717 H        49     C_AX    0.0000
    149 H          97.8483   37.8496    9.0932 H        49     C_AX    0.0000
    150 H          98.6195   39.3226    9.8285 H        49     C_AX    0.0000
    151 C         117.4868   32.5416   35.3680 C.2      50      M_A    0.0000
    152 C         117.5676   31.7981   34.0302 C.3      50      M_A    0.0000
    153 H         118.0058   31.9704   36.1477 H        50      M_A    0.0000
    154 H         116.4407   32.6306   35.6863 H        50      M_A    0.0000
    155 H         117.5230   32.5130   33.1993 H        50      M_A    0.0000
    156 H         118.5296   31.2775   33.9466 H        50      M_A    0.0000
    157 C         116.4113   30.7533   33.8604 C.3      51      M_A    0.0000
    158 C         116.7273   29.4203   34.5478 C.3      51      M_A    0.0000
    159 H         115.4873   31.1786   34.2712 H        51      M_A    0.0000
    160 H         116.2350   30.5919   32.7897 H        51      M_A    0.0000
    161 H         117.6545   28.9979   34.1411 H        51      M_A    0.0000
    162 H         116.8978   29.5809   35.6195 H        51      M_A    0.0000
    163 C         115.5746   28.3727   34.3709 C.3      52      M_A    0.0000
    164 C         114.9216   27.9967   35.7055 C.3      52      M_A    0.0000
    165 H         114.8227   28.7863   33.6875 H        52      M_A    0.0000
    166 H         115.9822   27.4770   33.8860 H        52      M_A    0.0000
    167 H         115.3577   27.0658   36.0886 H        52      M_A    0.0000
    168 H         115.1246   28.7715   36.4551 H        52      M_A    0.0000
    169 C         113.3702   27.8123   35.5767 C.3      53      M_A    0.0000
    170 C         112.5933   28.9832   36.1888 C.3      53      M_A    0.0000
    171 H         113.1138   27.7046   34.5155 H        53      M_A    0.0000
    172 H         113.0838   26.8736   36.0669 H        53      M_A    0.0000
    173 H         111.6650   28.6200   36.6470 H        53      M_A    0.0000
    174 H         113.1809   29.4458   36.9915 H        53      M_A    0.0000
    175 C         112.2373   30.0799   35.1268 C.3      54      M_A    0.0000
    176 C         110.7425   30.0974   34.7886 C.3      54      M_A    0.0000
    177 H         112.5473   31.0591   35.5122 H        54      M_A    0.0000
    178 H         112.8262   29.8977   34.2193 H        54      M_A    0.0000
    179 H         110.5255   29.3614   34.0046 H        54      M_A    0.0000
    180 H         110.1546   29.8043   35.6673 H        54      M_A    0.0000
    181 C         110.2593   31.5082   34.3051 C.3      55      M_A    0.0000
    182 C         109.1271   31.4132   33.2764 C.3      55      M_A    0.0000
    183 H         109.9282   32.0864   35.1767 H        55      M_A    0.0000
    184 H         111.1134   32.0465   33.8759 H        55      M_A    0.0000
    185 H         109.2935   32.1341   32.4664 H        55      M_A    0.0000
    186 H         109.1200   30.4176   32.8157 H        55      M_A    0.0000
    187 C         107.7209   31.6851   33.9138 C.3      56      M_A    0.0000
    188 C         106.5731   31.3113   32.9695 C.3      56      M_A    0.0000
    189 H         107.6401   31.1156   34.8480 H        56      M_A    0.0000
    190 H         107.6547   32.7461   34.1849 H        56      M_A    0.0000
    191 H         106.9287   30.6102   32.2042 H        56      M_A    0.0000
    192 H         105.7810   30.7951   33.5260 H        56      M_A    0.0000
    193 C         105.9564   32.5651   32.2586 C.3      57      M_A    0.0000
    194 C         105.0692   32.1807   31.0695 C.3      57      M_A    0.0000
    195 H         105.3750   33.1372   32.9923 H        57      M_A    0.0000
    196 H         106.7716   33.2185   31.9240 H        57      M_A    0.0000
    197 H         104.2832   31.7215   31.3881 H        57      M_A    0.0000
    198 H         104.7613   32.8845   30.4863 H        57      M_A    0.0000
    199 C         105.8326   31.2983   30.3362 C.3      58      M_A    0.0000
    200 C         105.0776   30.4581   29.6017 C.3      58      M_A    0.0000
    201 H         106.4226   31.8005   29.7620 H        58      M_A    0.0000
    202 H         106.3937   30.7970   30.9395 H        58      M_A    0.0000
    203 H         104.1495   30.7146   29.6556 H        58      M_A    0.0000
    204 H         105.3275   30.5161   28.6720 H        58      M_A    0.0000
    205 C         105.2013   29.1490   30.0140 C.3      59      M_A    0.0000
    206 C         104.0226   28.4965   30.0025 C.3      59      M_A    0.0000
    207 H         105.8331   28.7006   29.4397 H        59      M_A    0.0000
    208 H         105.5773   29.1370   30.9020 H        59      M_A    0.0000
    209 H         103.6716   28.4635   29.1048 H        59      M_A    0.0000
    210 H         104.1476   27.5828   30.2847 H        59      M_A    0.0000
    211 C         103.0885   29.0910   30.8230 C.3      60      M_A    0.0000
    212 C         102.3259   28.1865   31.4678 C.3      60      M_A    0.0000
    213 H         103.5464   29.6517   31.4601 H        60      M_A    0.0000
    214 H         102.5329   29.6728   30.2911 H        60      M_A    0.0000
    215 H         101.4083   28.4826   31.4890 H        60      M_A    0.0000
    216 H         102.3352   27.3473   30.9927 H        60      M_A    0.0000
    217 C         102.7527   27.9700   32.7601 C.3      61      M_A    0.0000
    218 C         102.5882   26.6891   33.1444 C.3      61      M_A    0.0000
    219 H         103.6823   28.2183   32.8262 H        61      M_A    0.0000
    220 H         102.2665   28.5574   33.3506 H        61      M_A    0.0000
    221 H         101.6980   26.5599   33.4920 H        61      M_A    0.0000
    222 H         102.6767   26.1020   32.3845 H        61      M_A    0.0000
    223 C         103.4999   26.3112   34.1063 C.3      62      M_A    0.0000
    224 C         104.3224   25.3353   33.6748 C.3      62      M_A    0.0000
    225 H         104.0132   27.0843   34.3689 H        62      M_A    0.0000
    226 H         103.0209   26.0175   34.8902 H        62      M_A    0.0000
    227 H         103.9988   24.4758   33.9692 H        62      M_A    0.0000
    228 H         104.3313   25.3124   32.7107 H        62      M_A    0.0000
    229 C         105.6135   25.5025   34.1270 C.3      63      M_A    0.0000
    230 C         105.8973   24.6983   35.1701 C.3      63      M_A    0.0000
    231 H         106.2225   25.3282   33.3998 H        63      M_A    0.0000
    232 H         105.7380   26.4254   34.3775 H        63      M_A    0.0000
    233 H         105.6871   25.1448   35.9986 H        63      M_A    0.0000
    234 H         105.3487   23.9059   35.1356 H        63      M_A    0.0000
    235 C         107.2224   24.3205   35.1929 C.3      64      M_A    0.0000
    236 C         107.7317   24.3195   36.4402 C.3      64      M_A    0.0000
    237 H         107.3020   23.4422   34.8025 H        64      M_A    0.0000
    238 H         107.7263   24.9203   34.6304 H        64      M_A    0.0000
    239 H         107.6423   25.1951   36.8346 H        64      M_A    0.0000
    240 H         107.2346   23.7115   36.9999 H        64      M_A    0.0000
    241 C         109.0610   23.9566   36.4613 C.3      65      M_A    0.0000
    242 C         109.7442   24.5771   37.4429 C.3      65      M_A    0.0000
    243 H         109.1204   23.0002   36.5706 H        65      M_A    0.0000
    244 H         109.4530   24.1623   35.6045 H        65      M_A    0.0000
    245 H         110.1968   25.3528   37.0915 H        65      M_A    0.0000
    246 H         109.1352   24.8947   38.1199 H        65      M_A    0.0000
    247 C         110.6744   23.7503   38.0349 C.3      66      M_A    0.0000
    248 C         111.9198   23.9665   37.5686 C.3      66      M_A    0.0000
    249 H         110.6501   23.8881   38.9891 H        66      M_A    0.0000
    250 H         110.4181   22.8335   37.8808 H        66      M_A    0.0000
    251 H         111.9969   24.8690   37.2373 H        66      M_A    0.0000
    252 H         112.5607   23.8784   38.2839 H        66      M_A    0.0000
    253 C         112.2584   23.0922   36.5586 C.3      67      M_A    0.0000
    254 C         113.2353   22.2404   36.9268 C.3      67      M_A    0.0000
    255 H         111.4716   22.5998   36.2969 H        67      M_A    0.0000
    256 H         112.5362   23.6005   35.7875 H        67      M_A    0.0000
    257 H         113.8323   22.6712   37.5497 H        67      M_A    0.0000
    258 H         112.8566   21.4815   37.3858 H        67      M_A    0.0000
    259 C         113.9672   21.7883   35.8502 C.3      68      M_A    0.0000
    260 C         113.6225   20.5373   35.4875 C.3      68      M_A    0.0000
    261 H         113.8390   22.3941   35.1108 H        68      M_A    0.0000
    262 H         114.9043   21.8209   36.0757 H        68      M_A    0.0000
    263 H         113.9386   20.3527   34.5953 H        68      M_A    0.0000
    264 H         114.0461   19.8957   36.0697 H        68      M_A    0.0000
    265 C         112.2592   20.3394   35.5256 C.3      69      M_A    0.0000
    266 C         111.9035   19.1387   35.0284 C.2      69      M_A    0.0000
    267 H         111.9585   20.4217   36.4382 H        69      M_A    0.0000
    268 H         111.8288   21.0442   35.0275 H        69      M_A    0.0000
    269 H         112.2042   19.0564   34.1158 H        69      M_A    0.0000
    270 H         112.3340   18.4339   35.5264 H        69      M_A    0.0000
    271 C         127.2162   14.3134   32.2822 C.2      70      M_A    0.0000
    272 C         126.3418   13.7331   31.6770 C.3      70      M_A    0.0000
    273 H         126.9280   14.5527   33.0643 H        70      M_A    0.0000
    274 H         127.4347   15.0410   31.8640 H        70      M_A    0.0000
    275 H         126.6034   13.5617   30.8683 H        70      M_A    0.0000
    276 H         126.1769   12.9692   32.0526 H        70      M_A    0.0000
    277 C         125.2913   14.3883   31.6265 C.3      71      M_A    0.0000
    278 C         124.9073   14.7256   32.7248 C.3      71      M_A    0.0000
    279 H         125.4213   15.0869   31.1295 H        71      M_A    0.0000
    280 H         124.6834   13.9119   31.2323 H        71      M_A    0.0000
    281 H         124.7472   14.0261   33.2116 H        71      M_A    0.0000
    282 H         125.5273   15.1753   33.1315 H        71      M_A    0.0000
    283 C         123.8814   15.4183   32.6714 C.3      72      M_A    0.0000
    284 C         123.9602   16.4097   33.3631 C.3      72      M_A    0.0000
    285 H         123.7381   15.6423   31.8460 H        72      M_A    0.0000
    286 H         123.2050   14.9357   32.9194 H        72      M_A    0.0000
    287 H         123.7311   16.2225   34.1782 H        72      M_A    0.0000
    288 H         124.7813   16.6871   33.3928 H        72      M_A    0.0000
    289 C         123.2424   17.3304   32.9479 C.3      73      M_A    0.0000
    290 C         123.7800   18.4116   33.0458 C.3      73      M_A    0.0000
    291 H         123.0381   17.1738   32.1199 H        73      M_A    0.0000
    292 H         122.4982   17.3270   33.3929 H        73      M_A    0.0000
    293 H         123.7263   18.6974   33.8627 H        73      M_A    0.0000
    294 H         124.6244   18.3416   32.8615 H        73      M_A    0.0000
    295 C         123.2756   19.2567   32.2931 C.3      74      M_A    0.0000
    296 C         122.5112   19.9935   32.8767 C.3      74      M_A    0.0000
    297 H         123.9110   19.7182   31.9254 H        74      M_A    0.0000
    298 H         122.8615   18.8471   31.6506 H        74      M_A    0.0000
    299 H         121.7591   19.5871   33.0219 H        74      M_A    0.0000
    300 H         122.8350   20.2031   33.6533 H        74      M_A    0.0000
    301 C         122.2868   21.0345   32.2433 C.3      75      M_A    0.0000
    302 C         121.1211   21.1398   31.9311 C.3      75      M_A    0.0000
    303 H         122.5277   21.7131   32.7265 H        75      M_A    0.0000
    304 H         122.7864   21.0437   31.5346 H        75      M_A    0.0000
    305 H         120.6385   21.3001   32.6335 H        75      M_A    0.0000
    306 H         121.0160   21.8151   31.3974 H        75      M_A    0.0000
    307 C         120.6900   20.1201   31.3746 C.3      76      M_A    0.0000
    308 C         119.4997   19.9725   31.5446 C.3      76      M_A    0.0000
    309 H         120.8654   20.1690   30.5268 H        76      M_A    0.0000
    310 H         121.1214   19.4321   31.6788 H        76      M_A    0.0000
    311 H         119.2483   20.3877   32.2632 H        76      M_A    0.0000
    312 H         119.0593   20.3253   30.8862 H        76      M_A    0.0000
    313 C         119.1837   18.7784   31.6421 C.3      77      M_A    0.0000
    314 C         118.8062   18.4929   32.7573 C.3      77      M_A    0.0000
    315 H         118.5607   18.6061   31.0641 H        77      M_A    0.0000
    316 H         119.8666   18.2900   31.4252 H        77      M_A    0.0000
    317 H         119.4666   18.1793   33.2235 H        77      M_A    0.0000
    318 H         118.5271   19.2039   33.1678 H        77      M_A    0.0000
    319 C         117.8933   17.6552   32.7439 C.3      78      M_A    0.0000
    320 C         117.7276   17.1395   33.8275 C.3      78      M_A    0.0000
    321 H         117.1623   18.0424   32.4840 H        78      M_A    0.0000
    322 H         118.0785   17.0495   32.1516 H        78      M_A    0.0000
    323 H         117.6720   16.2784   33.7417 H        78      M_A    0.0000
    324 H         118.4106   17.2952   34.3385 H        78      M_A    0.0000
    325 C         116.7043   17.5514   34.3920 C.3      79      M_A    0.0000
    326 C         116.4288   16.9001   35.3756 C.3      79      M_A    0.0000
    327 H         116.8203   18.3830   34.6089 H        79      M_A    0.0000
    328 H         116.0462   17.5307   33.8277 H        79      M_A    0.0000
    329 H         115.8332   16.3015   35.1786 H        79      M_A    0.0000
    330 H         117.1293   16.4720   35.6546 H        79      M_A    0.0000
    331 C         115.9970   17.6043   36.2992 C.3      80      M_A    0.0000
    332 C         114.9517   17.1854   36.7458 C.3      80      M_A    0.0000
    333 H         116.5950   17.6404   36.9262 H        80      M_A    0.0000
    334 H         115.8925   18.4143   36.0078 H        80      M_A    0.0000
    335 H         114.8559   16.3479   36.5426 H        80      M_A    0.0000
    336 H         114.9582   17.2324   37.6117 H        80      M_A    0.0000
    337 C         113.9731   17.8144   36.3191 C.3      81      M_A    0.0000
    338 C         113.1168   17.0833   35.8721 C.2      81      M_A    0.0000
    339 H         113.6472   18.2949   36.9632 H        81      M_A    0.0000
    340 H         114.2413   18.3671   35.7072 H        81      M_A    0.0000
    341 H         113.4427   16.6028   35.2280 H        81      M_A    0.0000
    342 H         112.8486   16.5306   36.4841 H        81      M_A    0.0000
    343 C         130.2485   27.0382   45.0877 C.2      82      M_A    0.0000
    344 C         129.8419   25.8840   44.1650 C.3      82      M_A    0.0000
    345 H         129.9066   26.8400   46.1111 H        82      M_A    0.0000
    346 H         129.7599   27.9665   44.7666 H        82      M_A    0.0000
    347 H         130.1980   26.0745   43.1449 H        82      M_A    0.0000
    348 H         130.3176   24.9524   44.4958 H        82      M_A    0.0000
    349 C         128.2890   25.6726   44.1268 C.3      83      M_A    0.0000
    350 C         127.5601   26.8414   43.4549 C.3      83      M_A    0.0000
    351 H         128.0724   24.7381   43.5945 H        83      M_A    0.0000
    352 H         127.9246   25.5422   45.1533 H        83      M_A    0.0000
    353 H         127.7744   27.7754   43.9890 H        83      M_A    0.0000
    354 H         127.9266   26.9737   42.4294 H        83      M_A    0.0000
    355 C         126.0076   26.6281   43.4130 C.3      84      M_A    0.0000
    356 C         125.2381   27.9532   43.4448 C.3      84      M_A    0.0000
    357 H         125.7522   26.0665   42.5058 H        84      M_A    0.0000
    358 H         125.7136   26.0018   44.2644 H        84      M_A    0.0000
    359 H         125.8263   28.7172   43.9681 H        84      M_A    0.0000
    360 H         125.0807   28.3214   42.4235 H        84      M_A    0.0000
    361 C         123.8460   27.8149   44.1522 C.3      85      M_A    0.0000
    362 C         122.6840   28.1900   43.2259 C.3      85      M_A    0.0000
    363 H         123.7288   26.7822   44.5034 H        85      M_A    0.0000
    364 H         123.8375   28.4538   45.0440 H        85      M_A    0.0000
    365 H         123.0083   28.9501   42.5044 H        85      M_A    0.0000
    366 H         122.3706   27.3154   42.6425 H        85      M_A    0.0000
    367 C         121.4471   28.7393   44.0169 C.3      86      M_A    0.0000
    368 C         120.2460   29.0078   43.1035 C.3      86      M_A    0.0000
    369 H         121.1741   28.0147   44.7940 H        86      M_A    0.0000
    370 H         121.7395   29.6613   44.5346 H        86      M_A    0.0000
    371 H         120.5840   29.4486   42.1575 H        86      M_A    0.0000
    372 H         119.7471   28.0640   42.8508 H        86      M_A    0.0000
    373 C         119.2004   29.9708   43.7645 C.3      87      M_A    0.0000
    374 C         117.8728   30.0003   42.9992 C.3      87      M_A    0.0000
    375 H         119.0306   29.6511   44.8002 H        87      M_A    0.0000
    376 H         119.6294   30.9793   43.8125 H        87      M_A    0.0000
    377 H         118.0619   30.0632   41.9204 H        87      M_A    0.0000
    378 H         117.3203   29.0678   43.1684 H        87      M_A    0.0000
    379 C         116.9684   31.2078   43.4249 C.3      88      M_A    0.0000
    380 C         115.7230   31.3406   42.5414 C.3      88      M_A    0.0000
    381 H         116.6734   31.0764   44.4734 H        88      M_A    0.0000
    382 H         117.5628   32.1287   43.3780 H        88      M_A    0.0000
    383 H         115.9802   31.1335   41.4953 H        88      M_A    0.0000
    384 H         114.9726   30.5961   42.8348 H        88      M_A    0.0000
    385 C         115.0807   32.7678   42.6308 C.3      89      M_A    0.0000
    386 C         114.0320   33.0022   41.5379 C.3      89      M_A    0.0000
    387 H         114.6251   32.8892   43.6214 H        89      M_A    0.0000
    388 H         115.8765   33.5191   42.5558 H        89      M_A    0.0000
    389 H         114.2464   32.3682   40.6686 H        89      M_A    0.0000
    390 H         113.0384   32.7126   41.9016 H        89      M_A    0.0000
    391 C         113.9834   34.4983   41.0723 C.3      90      M_A    0.0000
    392 C         112.8789   34.7497   40.0398 C.3      90      M_A    0.0000
    393 H         113.8296   35.1372   41.9507 H        90      M_A    0.0000
    394 H         114.9598   34.7699   40.6523 H        90      M_A    0.0000
    395 H         112.9032   33.9723   39.2661 H        90      M_A    0.0000
    396 H         111.8942   34.6863   40.5193 H        90      M_A    0.0000
    397 C         113.0166   36.1516   39.3519 C.3      91      M_A    0.0000
    398 C         111.6689   36.6939   38.8636 C.3      91      M_A    0.0000
    399 H         113.4681   36.8526   40.0649 H        91      M_A    0.0000
    400 H         113.7147   36.0653   38.5100 H        91      M_A    0.0000
    401 H         111.2703   36.0511   38.0690 H        91      M_A    0.0000
    402 H         110.9373   36.6749   39.6809 H        91      M_A    0.0000
    403 C         111.7803   38.1598   38.3193 C.3      92      M_A    0.0000
    404 C         110.4184   38.8595   38.2518 C.3      92      M_A    0.0000
    405 H         112.4624   38.7261   38.9656 H        92      M_A    0.0000
    406 H         112.2394   38.1333   37.3233 H        92      M_A    0.0000
    407 H         109.8179   38.4359   37.4371 H        92      M_A    0.0000
    408 H         109.8591   38.6844   39.1792 H        92      M_A    0.0000
    409 C         110.5548   40.4050   38.0281 C.3      93      M_A    0.0000
    410 C         109.2007   41.0774   37.7769 C.3      93      M_A    0.0000
    411 H         111.0375   40.8484   38.9078 H        93      M_A    0.0000
    412 H         111.2258   40.5814   37.1782 H        93      M_A    0.0000
    413 H         108.9413   41.0149   36.7127 H        93      M_A    0.0000
    414 H         108.4109   40.5491   38.3252 H        93      M_A    0.0000
    415 C         109.1958   42.5839   38.2105 C.3      94      M_A    0.0000
    416 C         107.8807   43.2863   37.8554 C.3      94      M_A    0.0000
    417 H         109.3729   42.6412   39.2916 H        94      M_A    0.0000
    418 H         110.0375   43.0940   37.7258 H        94      M_A    0.0000
    419 H         107.4331   42.8207   36.9686 H        94      M_A    0.0000
    420 H         107.1581   43.1672   38.6723 H        94      M_A    0.0000
    421 C         108.0805   44.8159   37.5765 C.3      95      M_A    0.0000
    422 C         106.7720   45.5106   37.1839 C.3      95      M_A    0.0000
    423 H         108.5020   45.2867   38.4733 H        95      M_A    0.0000
    424 H         108.8241   44.9357   36.7788 H        95      M_A    0.0000
    425 H         106.2265   44.9001   36.4536 H        95      M_A    0.0000
    426 H         106.1207   45.6094   38.0611 H        95      M_A    0.0000
    427 C         107.0150   46.9333   36.5721 C.3      96      M_A    0.0000
    428 C         105.7052   47.6863   36.3144 C.3      96      M_A    0.0000
    429 H         107.6512   47.5084   37.2562 H        96      M_A    0.0000
    430 H         107.5767   46.8245   35.6361 H        96      M_A    0.0000
    431 H         105.2737   48.0263   37.2640 H        96      M_A    0.0000
    432 H         105.8995   48.5855   35.7168 H        96      M_A    0.0000
    433 C         104.6484   46.8016   35.5674 C.3      97      M_A    0.0000
    434 C         103.3408   47.5565   35.3043 C.3      97      M_A    0.0000
    435 H         105.0815   46.4578   34.6199 H        97      M_A    0.0000
    436 H         104.4508   45.9046   36.1672 H        97      M_A    0.0000
    437 H         102.7436   47.6062   36.2232 H        97      M_A    0.0000
    438 H         103.5563   48.5918   35.0123 H        97      M_A    0.0000
    439 C         102.4817   46.8826   34.1793 C.3      98      M_A    0.0000
    440 C         101.0480   47.4230   34.1410 C.3      98      M_A    0.0000
    441 H         102.9724   47.0489   33.2123 H        98      M_A    0.0000
    442 H         102.4707   45.7982   34.3447 H        98      M_A    0.0000
    443 H         100.6024   47.3787   35.1425 H        98      M_A    0.0000
    444 H         101.0519   48.4792   33.8444 H        98      M_A    0.0000
    445 C         100.1378   46.6225   33.1470 C.3      99      M_A    0.0000
    446 C          99.2094   47.5392   32.3428 C.3      99      M_A    0.0000
    447 H         100.7777   46.0458   32.4677 H        99      M_A    0.0000
    448 H          99.5467   45.8948   33.7168 H        99      M_A    0.0000
    449 H          98.6688   48.2135   33.0186 H        99      M_A    0.0000
    450 H          99.7985   48.1739   31.6693 H        99      M_A    0.0000
    451 C          98.1673   46.7324   31.4940 C.3     100      M_A    0.0000
    452 C          98.4883   46.7655   29.9957 C.3     100      M_A    0.0000
    453 H          98.1469   45.6954   31.8515 H       100      M_A    0.0000
    454 H          97.1677   47.1473   31.6737 H       100      M_A    0.0000
    455 H          98.9119   47.7401   29.7232 H       100      M_A    0.0000
    456 H          99.2504   46.0131   29.7576 H       100      M_A    0.0000
    457 C          97.2220   46.4997   29.1107 C.3     101      M_A    0.0000
    458 C          97.0344   45.2970   28.4457 C.3     101      M_A    0.0000
    459 H          96.4564   46.6760   29.7178 H       101      M_A    0.0000
    460 H          97.2476   47.2485   28.4593 H       101      M_A    0.0000
    461 H          96.2030   45.3334   27.9043 H       101      M_A    0.0000
    462 H          97.7813   45.1388   27.8110 H       101      M_A    0.0000
    463 C          96.9514   44.1968   29.3375 C.3     102      M_A    0.0000
    464 C          96.6924   43.0042   28.6784 C.3     102      M_A    0.0000
    465 H          97.8038   44.1288   29.8420 H       102      M_A    0.0000
    466 H          96.2390   44.3787   30.0047 H       102      M_A    0.0000
    467 H          96.0209   42.4751   29.1832 H       102      M_A    0.0000
    468 H          96.2985   43.1873   27.7856 H       102      M_A    0.0000
    469 C          97.8613   42.2181   28.5100 C.3     103      M_A    0.0000
    470 C          97.5841   40.9749   27.9610 C.3     103      M_A    0.0000
    471 H          98.4983   42.7119   27.9303 H       103      M_A    0.0000
    472 H          98.3038   42.1097   29.3921 H       103      M_A    0.0000
    473 H          97.4241   40.3121   28.6827 H       103      M_A    0.0000
    474 H          96.7503   41.0182   27.4238 H       103      M_A    0.0000
    475 C          98.6370   40.5054   27.1342 C.3     104      M_A    0.0000
    476 C          99.3188   39.4409   27.7049 C.3     104      M_A    0.0000
    477 H          98.2589   40.2363   26.2565 H       104      M_A    0.0000
    478 H          99.2633   41.2551   26.9570 H       104      M_A    0.0000
    479 H          99.5941   39.6701   28.6308 H       104      M_A    0.0000
    480 H          98.7213   38.6509   27.7724 H       104      M_A    0.0000
    481 C         100.4717   39.0800   26.9611 C.3     105      M_A    0.0000
    482 C         101.3897   38.3737   27.7241 C.3     105      M_A    0.0000
    483 H         100.1908   38.5378   26.1783 H       105      M_A    0.0000
    484 H         100.8912   39.9047   26.6009 H       105      M_A    0.0000
    485 H         102.0281   39.0003   28.1549 H       105      M_A    0.0000
    486 H         100.9244   37.8922   28.4571 H       105      M_A    0.0000
    487 C         102.1212   37.4348   26.9522 C.3     106      M_A    0.0000
    488 C         103.4219   37.2792   27.4080 C.3     106      M_A    0.0000
    489 H         101.6462   36.5632   26.9742 H       106      M_A    0.0000
    490 H         102.1257   37.7332   26.0053 H       106      M_A    0.0000
    491 H         103.9843   38.0362   27.0976 H       106      M_A    0.0000
    492 H         103.4396   37.2991   28.4004 H       106      M_A    0.0000
    493 C         104.0053   36.0644   26.9646 C.3     107      M_A    0.0000
    494 C         105.3458   35.9690   27.3078 C.3     107      M_A    0.0000
    495 H         103.4990   35.3049   27.3552 H       107      M_A    0.0000
    496 H         103.9007   36.0000   25.9794 H       107      M_A    0.0000
    497 H         105.9138   36.2482   26.5428 H       107      M_A    0.0000
    498 H         105.5506   36.5886   28.0560 H       107      M_A    0.0000
    499 C         105.7102   34.6526   27.6914 C.3     108      M_A    0.0000
    500 C         107.0793   34.4434   27.6168 C.3     108      M_A    0.0000
    501 H         105.3908   34.4891   28.6170 H       108      M_A    0.0000
    502 H         105.2347   34.0059   27.1072 H       108      M_A    0.0000
    503 H         107.4297   34.7867   26.7536 H       108      M_A    0.0000
    504 H         107.5409   34.9515   28.3341 H       108      M_A    0.0000
    505 C         107.4209   33.0716   27.7358 C.3     109      M_A    0.0000
    506 C         108.7919   32.8759   27.8117 C.3     109      M_A    0.0000
    507 H         106.9788   32.7007   28.5437 H       109      M_A    0.0000
    508 H         107.0495   32.5807   26.9569 H       109      M_A    0.0000
    509 H         109.2548   33.4478   27.1451 H       109      M_A    0.0000
    510 H         109.1262   33.1516   28.7050 H       109      M_A    0.0000
    511 C         109.1553   31.5235   27.5849 C.3     110      M_A    0.0000
    512 C         110.5158   31.3100   27.7502 C.3     110      M_A    0.0000
    513 H         108.6419   30.9454   28.2077 H       110      M_A    0.0000
    514 H         108.8798   31.2679   26.6660 H       110      M_A    0.0000
    515 H         111.0307   32.0242   27.2915 H       110      M_A    0.0000
    516 H         110.7539   31.3603   28.7127 H       110      M_A    0.0000
    517 C         110.9281   30.0511   27.2424 C.3     111      M_A    0.0000
    518 C         112.2529   29.7712   27.5432 C.3     111      M_A    0.0000
    519 H         110.3378   29.3461   27.6169 H       111      M_A    0.0000
    520 H         110.7933   30.0430   26.2588 H       111      M_A    0.0000
    521 H         112.8494   30.1710   26.8576 H       111      M_A    0.0000
    522 H         112.4995   30.1845   28.4115 H       111      M_A    0.0000
    523 C         112.5056   28.3769   27.6121 C.3     112      M_A    0.0000
    524 C         113.7611   28.0953   28.1299 C.3     112      M_A    0.0000
    525 H         111.8037   27.9517   28.1709 H       112      M_A    0.0000
    526 H         112.4183   27.9905   26.7018 H       112      M_A    0.0000
    527 H         113.8898   27.1130   28.1955 H       112      M_A    0.0000
    528 H         114.4656   28.4349   27.5184 H       112      M_A    0.0000
    529 C         113.9544   28.6684   29.4132 C.3     113      M_A    0.0000
    530 C         115.1145   29.4257   29.4814 C.3     113      M_A    0.0000
    531 H         113.1670   29.2312   29.6343 H       113      M_A    0.0000
    532 H         113.9830   27.9405   30.0878 H       113      M_A    0.0000
    533 H         115.0554   30.1957   28.8576 H       113      M_A    0.0000
    534 H         115.2205   29.8047   30.3929 H       113      M_A    0.0000
    535 C         116.2709   28.6676   29.1640 C.3     114      M_A    0.0000
    536 C         117.1010   28.4909   30.2611 C.3     114      M_A    0.0000
    537 H         115.9873   27.7860   28.8061 H       114      M_A    0.0000
    538 H         116.7639   29.1263   28.4345 H       114      M_A    0.0000
    539 H         116.6375   27.9537   30.9556 H       114      M_A    0.0000
    540 H         117.9096   27.9788   29.9971 H       114      M_A    0.0000
    541 C         117.5071   29.7243   30.8323 C.3     115      M_A    0.0000
    542 C         118.8435   29.7170   31.2035 C.3     115      M_A    0.0000
    543 H         117.3398   30.4510   30.1768 H       115      M_A    0.0000
    544 H         116.9356   29.9151   31.6214 H       115      M_A    0.0000
    545 H         118.9881   29.0695   31.9420 H       115      M_A    0.0000
    546 H         119.4061   29.4135   30.4439 H       115      M_A    0.0000
    547 C         119.2921   30.9960   31.6224 C.3     116      M_A    0.0000
    548 C         119.8816   30.9613   32.8774 C.2     116      M_A    0.0000
    549 H         119.9373   31.3440   30.9527 H       116      M_A    0.0000
    550 H         118.5203   31.6205   31.6259 H       116      M_A    0.0000
    551 H         119.2364   30.6134   33.5470 H       116      M_A    0.0000
    552 H         120.6534   30.3368   32.8738 H       116      M_A    0.0000
    553 C         106.5383   42.5528   21.1745 C.2     117      M_A    0.0000
    554 C         105.4480   41.4852   21.0310 C.3     117      M_A    0.0000
    555 H         107.3323   42.3810   20.4372 H       117      M_A    0.0000
    556 H         107.0064   42.4818   22.1641 H       117      M_A    0.0000
    557 H         104.7298   41.6989   21.6719 H       117      M_A    0.0000
    558 H         105.1162   41.7409   20.1383 H       117      M_A    0.0000
    559 C         105.6748   40.0947   21.0501 C.3     118      M_A    0.0000
    560 C         107.0000   39.7847   21.2633 C.3     118      M_A    0.0000
    561 H         105.1155   39.6911   21.7549 H       118      M_A    0.0000
    562 H         105.3714   39.7114   20.1937 H       118      M_A    0.0000
    563 H         107.5722   40.3122   20.6578 H       118      M_A    0.0000
    564 H         107.2605   40.0281   22.1827 H       118      M_A    0.0000
    565 C         107.2671   38.4158   21.0628 C.3     119      M_A    0.0000
    566 C         108.2689   37.9532   21.8876 C.3     119      M_A    0.0000
    567 H         106.4385   37.9043   21.2176 H       119      M_A    0.0000
    568 H         107.5145   38.2752   20.1187 H       119      M_A    0.0000
    569 H         109.1069   38.4406   21.7079 H       119      M_A    0.0000
    570 H         108.0374   38.1260   22.8304 H       119      M_A    0.0000
    571 C         108.5017   36.5733   21.7227 C.3     120      M_A    0.0000
    572 C         109.3160   36.0598   22.7081 C.3     120      M_A    0.0000
    573 H         107.6352   36.1028   21.7208 H       120      M_A    0.0000
    574 H         108.9074   36.4232   20.8365 H       120      M_A    0.0000
    575 H         108.7687   35.6889   23.4396 H       120      M_A    0.0000
    576 H         109.8520   35.3140   22.3492 H       120      M_A    0.0000
    577 C         110.1876   37.0306   23.2402 C.3     121      M_A    0.0000
    578 C         110.7445   36.6330   24.4359 C.3     121      M_A    0.0000
    579 H         110.8977   37.2155   22.5815 H       121      M_A    0.0000
    580 H         109.6890   37.8724   23.3629 H       121      M_A    0.0000
    581 H         110.0339   36.4188   25.0851 H       121      M_A    0.0000
    582 H         111.2683   35.8076   24.3069 H       121      M_A    0.0000
    583 C         111.5827   37.6211   24.9894 C.3     122      M_A    0.0000
    584 C         112.0686   37.2602   26.2269 C.3     122      M_A    0.0000
    585 H         112.3301   37.7882   24.3683 H       122      M_A    0.0000
    586 H         111.0771   38.4649   25.0576 H       122      M_A    0.0000
    587 H         111.5155   37.6619   26.9375 H       122      M_A    0.0000
    588 H         112.0101   36.2825   26.3411 H       122      M_A    0.0000
    589 C         113.4069   37.6599   26.4124 C.3     123      M_A    0.0000
    590 C         113.9204   37.2234   27.6139 C.3     123      M_A    0.0000
    591 H         113.9491   37.3110   25.6663 H       123      M_A    0.0000
    592 H         113.4549   38.6435   26.3615 H       123      M_A    0.0000
    593 H         114.7909   37.6535   27.7857 H       123      M_A    0.0000
    594 H         113.3232   37.4877   28.3527 H       123      M_A    0.0000
    595 C         114.0906   35.8251   27.6455 C.3     124      M_A    0.0000
    596 C         114.0189   35.3192   28.9248 C.3     124      M_A    0.0000
    597 H         113.4005   35.4080   27.0778 H       124      M_A    0.0000
    598 H         114.9621   35.6018   27.2419 H       124      M_A    0.0000
    599 H         114.4891   35.9176   29.5519 H       124      M_A    0.0000
    600 H         113.0792   35.2806   29.2210 H       124      M_A    0.0000
    601 C         114.5789   34.0298   29.0213 C.3     125      M_A    0.0000
    602 C         115.0486   33.7581   30.2875 C.3     125      M_A    0.0000
    603 H         113.8958   33.3667   28.7645 H       125      M_A    0.0000
    604 H         115.3107   33.9512   28.3651 H       125      M_A    0.0000
    605 H         115.9204   33.3004   30.2337 H       125      M_A    0.0000
    606 H         115.2001   34.5990   30.7796 H       125      M_A    0.0000
    607 C         114.1582   32.9537   31.0261 C.3     126      M_A    0.0000
    608 C         113.3952   33.6907   31.9050 C.3     126      M_A    0.0000
    609 H         113.5747   32.4663   30.3982 H       126      M_A    0.0000
    610 H         114.6768   32.2735   31.5168 H       126      M_A    0.0000
    611 H         113.9358   33.9480   32.6885 H       126      M_A    0.0000
    612 H         113.1008   34.5286   31.4766 H       126      M_A    0.0000
    613 C         112.2598   32.9841   32.3488 C.3     127      M_A    0.0000
    614 C         111.0986   33.7073   32.1869 C.3     127      M_A    0.0000
    615 H         112.2006   32.1339   31.8529 H       127      M_A    0.0000
    616 H         112.3826   32.7499   33.2987 H       127      M_A    0.0000
    617 H         110.5847   33.7147   33.0284 H       127      M_A    0.0000
    618 H         111.3119   34.6469   31.9771 H       127      M_A    0.0000
    619 C         110.2839   33.1869   31.1618 C.3     128      M_A    0.0000
    620 C         110.6353   33.6690   29.9201 C.3     128      M_A    0.0000
    621 H         110.3485   32.2030   31.1731 H       128      M_A    0.0000
    622 H         109.3440   33.4112   31.3580 H       128      M_A    0.0000
    623 H         110.1106   34.4770   29.7102 H       128      M_A    0.0000
    624 H         111.5837   33.9389   29.9182 H       128      M_A    0.0000
    625 C         110.4318   32.7178   28.9007 C.3     129      M_A    0.0000
    626 C         111.2815   32.9068   27.8330 C.3     129      M_A    0.0000
    627 H         110.5584   31.8156   29.2780 H       129      M_A    0.0000
    628 H         109.4942   32.7699   28.6000 H       129      M_A    0.0000
    629 H         110.8743   33.5257   27.1823 H       129      M_A    0.0000
    630 H         112.1194   33.3278   28.1381 H       129      M_A    0.0000
    631 C         111.5925   31.6989   27.1777 C.3     130      M_A    0.0000
    632 C         112.6643   31.8300   26.3222 C.3     130      M_A    0.0000
    633 H         111.7838   31.0093   27.8561 H       130      M_A    0.0000
    634 H         110.7980   31.3936   26.6799 H       130      M_A    0.0000
    635 H         112.4837   31.3529   25.4784 H       130      M_A    0.0000
    636 H         112.7963   32.7788   26.0884 H       130      M_A    0.0000
    637 C         113.8574   31.3296   26.8804 C.3     131      M_A    0.0000
    638 C         114.9540   31.5907   26.0885 C.3     131      M_A    0.0000
    639 H         113.9824   31.7288   27.7733 H       131      M_A    0.0000
    640 H         113.7618   30.3576   27.0157 H       131      M_A    0.0000
    641 H         115.1610   30.8061   25.5283 H       131      M_A    0.0000
    642 H         114.7565   32.3346   25.4721 H       131      M_A    0.0000
    643 C         116.0944   31.9205   26.8475 C.3     132      M_A    0.0000
    644 C         117.0568   30.9360   26.7984 C.3     132      M_A    0.0000
    645 H         116.4637   32.7714   26.5129 H       132      M_A    0.0000
    646 H         115.8199   32.0787   27.7813 H       132      M_A    0.0000
    647 H         116.6609   30.0642   27.0340 H       132      M_A    0.0000
    648 H         117.4056   30.8497   25.8802 H       132      M_A    0.0000
    649 C         118.1325   31.1969   27.6703 C.3     133      M_A    0.0000
    650 C         117.9139   30.6942   28.9341 C.3     133      M_A    0.0000
    651 H         118.9532   30.8061   27.2882 H       133      M_A    0.0000
    652 H         118.2768   32.1713   27.7143 H       133      M_A    0.0000
    653 H         117.2077   30.0066   28.9070 H       133      M_A    0.0000
    654 H         118.7289   30.2500   29.2669 H       133      M_A    0.0000
    655 C         117.5369   31.6967   29.8497 C.3     134      M_A    0.0000
    656 C         118.0609   31.4808   31.1053 C.3     134      M_A    0.0000
    657 H         117.8352   32.5708   29.5045 H       134      M_A    0.0000
    658 H         116.5525   31.7313   29.8955 H       134      M_A    0.0000
    659 H         117.3369   31.2805   31.7440 H       134      M_A    0.0000
    660 H         118.6539   30.6930   31.0933 H       134      M_A    0.0000
    661 C         118.7894   32.5904   31.5779 C.3     135      M_A    0.0000
    662 C         118.3737   32.9940   32.8277 C.2     135      M_A    0.0000
    663 H         119.7470   32.3562   31.5994 H       135      M_A    0.0000
    664 H         118.6935   33.3312   30.9341 H       135      M_A    0.0000
    665 H         117.4161   33.2282   32.8062 H       135      M_A    0.0000
    666 H         118.4697   32.2533   33.4715 H       135      M_A    0.0000
    667 C          96.0974   41.1069    9.1132 C.2     136      M_A    0.0000
    668 C          94.8760   40.4636    8.4473 C.3     136      M_A    0.0000
    669 H          95.8999   41.2749   10.1791 H       136      M_A    0.0000
    670 H          96.2926   42.0913    8.6700 H       136      M_A    0.0000
    671 H          94.9037   40.6359    7.3642 H       136      M_A    0.0000
    672 H          94.8966   39.3766    8.5940 H       136      M_A    0.0000
    673 C          93.5263   41.0245    9.0139 C.3     137      M_A    0.0000
    674 C          93.4665   40.7869   10.2189 C.3     137      M_A    0.0000
    675 H          93.5486   41.8939    8.8784 H       137      M_A    0.0000
    676 H          92.8035   40.7244    8.6109 H       137      M_A    0.0000
    677 H          92.6397   40.5892   10.4469 H       137      M_A    0.0000
    678 H          93.9574   40.0823   10.4123 H       137      M_A    0.0000
    679 C          93.8583   41.7577   10.9162 C.3     138      M_A    0.0000
    680 C          93.8324   41.5074   12.1199 C.3     138      M_A    0.0000
    681 H          94.6757   41.9722   10.6700 H       138      M_A    0.0000
    682 H          93.3505   42.4552   10.7420 H       138      M_A    0.0000
    683 H          93.0396   41.6987   12.4510 H       138      M_A    0.0000
    684 H          93.9605   40.6466   12.2520 H       138      M_A    0.0000
    685 C          94.7046   42.1498   12.7592 C.3     139      M_A    0.0000
    686 C          95.5151   41.4098   13.3139 C.3     139      M_A    0.0000
    687 H          95.1210   42.6918   12.2045 H       139      M_A    0.0000
    688 H          94.3027   42.6579   13.3551 H       139      M_A    0.0000
    689 H          95.6842   41.7027   14.1265 H       139      M_A    0.0000
    690 H          95.1758   40.6024   13.4017 H       139      M_A    0.0000
    691 C          96.5978   41.3277   12.6790 C.3     140      M_A    0.0000
    692 C          97.5765   41.3376   13.4235 C.3     140      M_A    0.0000
    693 H          96.5905   40.5893   12.2000 H       140      M_A    0.0000
    694 H          96.6446   41.9977   12.1101 H       140      M_A    0.0000
    695 H          97.6405   42.1171   13.8275 H       140      M_A    0.0000
    696 H          97.4811   40.7325   14.0556 H       140      M_A    0.0000
    697 C          98.6483   41.1123   12.8050 C.3     141      M_A    0.0000
    698 C          99.6401   41.3034   13.5063 C.3     141      M_A    0.0000
    699 H          98.6392   40.2812   12.5151 H       141      M_A    0.0000
    700 H          98.6785   41.6282   12.0925 H       141      M_A    0.0000
    701 H          99.5533   42.0569   13.9530 H       141      M_A    0.0000
    702 H          99.7149   40.6621   14.1046 H       141      M_A    0.0000
    703 C         100.6996   41.3527   12.8303 C.3     142      M_A    0.0000
    704 C         101.6916   41.0629   13.4967 C.3     142      M_A    0.0000
    705 H         100.6252   40.8043   12.1458 H       142      M_A    0.0000
    706 H         100.7861   42.1628   12.4969 H       142      M_A    0.0000
    707 H         101.9007   41.7295   14.0323 H       142      M_A    0.0000
    708 H         101.5178   40.3703   14.0113 H       142      M_A    0.0000
    709 C         102.6874   40.7936   12.7771 C.3     143      M_A    0.0000
    710 C         103.7265   40.7144   13.4299 C.3     143      M_A    0.0000
    711 H         102.5366   40.0352   12.3565 H       143      M_A    0.0000
    712 H         102.7664   41.4144   12.1581 H       143      M_A    0.0000
    713 H         103.6777   40.0407   13.9944 H       143      M_A    0.0000
    714 H         104.4064   40.5481   12.8961 H       143      M_A    0.0000
    715 C         103.9656   41.7673   14.0750 C.3     144      M_A    0.0000
    716 C         105.1545   41.8728   14.3709 C.3     144      M_A    0.0000
    717 H         103.7120   42.4590   13.5932 H       144      M_A    0.0000
    718 H         103.4717   41.7720   14.8036 H       144      M_A    0.0000
    719 H         105.3258   41.4120   15.1011 H       144      M_A    0.0000
    720 H         105.6557   41.5311   13.7331 H       144      M_A    0.0000
    721 C         105.4951   43.0691   14.5572 C.3     145      M_A    0.0000
    722 C         105.9776   43.2479   15.6740 C.3     145      M_A    0.0000
    723 H         106.0761   43.2985   13.9371 H       145      M_A    0.0000
    724 H         104.7906   43.5852   14.4467 H       145      M_A    0.0000
    725 H         106.2829   44.0706   15.7428 H       145      M_A    0.0000
    726 H         105.3553   43.1569   16.2898 H       145      M_A    0.0000
    727 C         106.9142   42.4459   15.9225 C.3     146      M_A    0.0000
    728 C         107.8094   42.9660   16.5861 C.3     146      M_A    0.0000
    729 H         106.5860   41.7505   16.3509 H       146      M_A    0.0000
    730 H         107.2386   42.1442   15.1620 H       146      M_A    0.0000
    731 H         108.3397   42.3458   16.9161 H       146      M_A    0.0000
    732 H         108.3080   43.4775   16.0718 H       146      M_A    0.0000
    733 C         107.3588   43.6600   17.5334 C.3     147      M_A    0.0000
    734 C         107.6665   43.2036   18.6330 C.2     147      M_A    0.0000
    735 H         107.6624   44.4822   17.4521 H       147      M_A    0.0000
    736 H         106.4828   43.7057   17.4599 H       147      M_A    0.0000
    737 H         107.3628   42.3814   18.7142 H       147      M_A    0.0000
    738 H         108.5425   43.1579   18.7064 H       147      M_A    0.0000
    739 C         117.7993   36.6277   12.5267 C.2     148      M_A    0.0000
    740 C         116.6564   35.8648   11.8478 C.3     148      M_A    0.0000
    741 H         117.7028   36.5576   13.6172 H       148      M_A    0.0000
    742 H         117.7427   37.6936   12.2733 H       148      M_A    0.0000
    743 H         116.1660   36.7790   10.6040 H       148      M_A    0.0000
    744 H         117.2197   34.4837   11.2163 H       148      M_A    0.0000
    745 C         114.8301   35.3832   13.1853 C.3     149      M_A    0.0000
    746 C         113.8588   33.4152   12.6343 C.3     149      M_A    0.0000
    747 H         115.3096   35.3520   14.7321 H       149      M_A    0.0000
    748 H         113.7558   36.5883   13.0557 H       149      M_A    0.0000
    749 H         113.3601   33.4542   11.0938 H       149      M_A    0.0000
    750 H         114.9388   32.2131   12.7433 H       149      M_A    0.0000
    751 C         112.0508   32.9191   13.9914 C.3     150      M_A    0.0000
    752 C         111.5175   30.7207   13.9397 C.3     150      M_A    0.0000
    753 H         112.3967   33.3711   15.5078 H       150      M_A    0.0000
    754 H         110.7832   33.8093   13.5184 H       150      M_A    0.0000
    755 H         110.8135   30.3531   12.5281 H       150      M_A    0.0000
    756 H         112.8607   29.8209   14.0378 H       150      M_A    0.0000
    757 C         110.0920   30.1232   15.6622 C.3     151      M_A    0.0000
    758 C         108.0923   29.3845   14.9033 C.3     151      M_A    0.0000
    759 H         110.8051   28.9759   16.5559 H       151      M_A    0.0000
    760 H         109.8796   31.4030   16.6318 H       151      M_A    0.0000
    761 H         107.3978   30.5163   13.9760 H       151      M_A    0.0000
    762 H         108.3014   28.0797   13.9667 H       151      M_A    0.0000
    763 C         106.6462   28.8416   16.6268 C.3     152      M_A    0.0000
    764 C         104.7432   27.8741   15.8769 C.3     152      M_A    0.0000
    765 H         107.4077   27.8469   17.6534 H       152      M_A    0.0000
    766 H         106.2952   30.1872   17.4572 H       152      M_A    0.0000
    767 H         104.0797   28.7832   14.7122 H       152      M_A    0.0000
    768 H         105.0766   26.4357   15.2110 H       152      M_A    0.0000
    769 C         103.1885   27.5725   17.5646 C.3     153      M_A    0.0000
    770 C         101.6862   25.9550   17.0676 C.3     153      M_A    0.0000
    771 H         103.9700   27.2028   18.9342 H       153      M_A    0.0000
    772 H         102.4258   28.9766   17.8288 H       153      M_A    0.0000
    773 H         100.8450   26.3655   15.7458 H       153      M_A    0.0000
    774 H         102.4540   24.5720   16.7194 H       153      M_A    0.0000
    775 C         100.2057   25.5695   18.8043 C.3     154      M_A    0.0000
    776 C          98.0486   25.7868   18.1563 C.3     154      M_A    0.0000
    777 H         100.4627   24.0810   19.3887 H       154      M_A    0.0000
    778 H         100.5312   26.6041   20.0071 H       154      M_A    0.0000
    779 H          97.9148   26.9708   17.0593 H       154      M_A    0.0000
    780 H          97.5454   24.4263   17.4359 H       154      M_A    0.0000
    781 C          96.6418   26.2542   19.9336 C.3     155      M_A    0.0000
    782 C          95.3969   28.1098   19.5770 C.3     155      M_A    0.0000
    783 H          95.6768   24.9779   20.1852 H       155      M_A    0.0000
    784 H          97.5346   26.4333   21.2730 H       155      M_A    0.0000
    785 H          96.1627   29.1038   18.5528 H       155      M_A    0.0000
    786 H          93.9930   27.7103   18.8751 H       155      M_A    0.0000
    787 C          94.9512   29.2570   21.5370 C.3     156      M_A    0.0000
    788 C          93.1911   28.3845   22.6600 C.3     156      M_A    0.0000
    789 H          96.2745   29.2294   22.4705 H       156      M_A    0.0000
    790 H          94.6667   30.8108   21.1792 H       156      M_A    0.0000
    791 H          91.9254   28.2152   21.6637 H       156      M_A    0.0000
    792 H          93.5576   26.9030   23.2023 H       156      M_A    0.0000
    793 C          92.5567   29.7003   24.4551 C.3     157      M_A    0.0000
    794 C          92.8060   28.6303   26.4332 C.3     157      M_A    0.0000
    795 H          93.4381   31.0591   24.4438 H       157      M_A    0.0000
    796 H          91.0124   30.1460   24.2556 H       157      M_A    0.0000
    797 H          91.3946   27.9857   26.8977 H       157      M_A    0.0000
    798 H          93.8481   27.4008   26.2720 H       157      M_A    0.0000
    799 C          93.5680   30.0400   28.1031 C.3     158      M_A    0.0000
    800 C          91.8804   31.1429   29.1305 C.3     158      M_A    0.0000
    801 H          94.4001   29.1668   29.1841 H       158      M_A    0.0000
    802 H          94.6110   31.0977   27.4577 H       158      M_A    0.0000
    803 H          90.5981   31.2377   28.1456 H       158      M_A    0.0000
    804 H          91.3995   30.3241   30.4426 H       158      M_A    0.0000
    805 C          92.4908   33.2822   29.7685 C.3     159      M_A    0.0000
    806 C          90.9403   34.2559   31.0981 C.3     159      M_A    0.0000
    807 H          93.9153   33.2116   30.5362 H       159      M_A    0.0000
    808 H          92.7231   34.1772   28.4387 H       159      M_A    0.0000
    809 H          89.4857   34.1999   30.3879 H       159      M_A    0.0000
    810 H          90.8101   33.4383   32.4901 H       159      M_A    0.0000
    811 C          91.4537   36.4619   31.5739 C.3     160      M_A    0.0000
    812 C          91.7191   36.8214   33.7921 C.3     160      M_A    0.0000
    813 H          92.8064   36.8661   30.7801 H       160      M_A    0.0000
    814 H          90.2741   37.4090   30.9951 H       160      M_A    0.0000
    815 H          90.3479   37.4028   34.4285 H       160      M_A    0.0000
    816 H          92.0263   35.4225   34.5485 H       160      M_A    0.0000
    817 C          93.4377   38.3052   34.2408 C.3     161      M_A    0.0000
    818 C          92.6725   40.3601   34.7991 C.3     161      M_A    0.0000
    819 H          94.3452   37.7055   35.4408 H       161      M_A    0.0000
    820 H          94.3953   38.4041   32.9383 H       161      M_A    0.0000
    821 H          91.7116   40.9322   33.6275 H       161      M_A    0.0000
    822 H          91.7684   40.2707   36.1399 H       161      M_A    0.0000
    823 C          94.3910   41.8684   35.1574 C.3     162      M_A    0.0000
    824 C          94.5197   43.4262   33.5213 C.3     162      M_A    0.0000
    825 H          94.1648   42.5865   36.5914 H       162      M_A    0.0000
    826 H          95.7873   41.0542   35.2601 H       162      M_A    0.0000
    827 H          93.1096   43.5181   32.7298 H       162      M_A    0.0000
    828 H          94.7873   44.8878   34.1659 H       162      M_A    0.0000
    829 C          96.2007   42.9630   31.9994 C.3     163      M_A    0.0000
    830 C          98.0186   44.2754   32.3037 C.3     163      M_A    0.0000
    831 H          96.6131   41.4026   32.1360 H       163      M_A    0.0000
    832 H          95.6176   43.1605   30.5013 H       163      M_A    0.0000
    833 H          97.9703   45.5355   31.2873 H       163      M_A    0.0000
    834 H          98.0171   44.8872   33.8034 H       163      M_A    0.0000
    835 C          99.9979   43.1234   31.9700 C.3     164      M_A    0.0000
    836 C         101.7288   44.0480   33.0967 C.3     164      M_A    0.0000
    837 H          99.7914   41.5854   32.4340 H       164      M_A    0.0000
    838 H         100.3220   43.0910   30.3834 H       164      M_A    0.0000
    839 H         102.2958   45.3314   32.2877 H       164      M_A    0.0000
    840 H         101.2267   44.5911   34.5376 H       164      M_A    0.0000
    841 C         103.4612   42.5492   33.4268 C.3     165      M_A    0.0000
    842 C         105.3024   43.0891   32.2275 C.3     165      M_A    0.0000
    843 H         103.8199   42.5055   35.0057 H       165      M_A    0.0000
    844 H         102.9516   41.0654   33.0244 H       165      M_A    0.0000
    845 H         104.8708   43.6684   30.7779 H       165      M_A    0.0000
    846 H         106.1250   44.2681   32.9734 H       165      M_A    0.0000
    847 C         106.7098   41.2780   31.9182 C.3     166      M_A    0.0000
    848 C         108.7593   41.8996   31.1879 C.3     166      M_A    0.0000
    849 H         106.8395   40.4727   33.3174 H       166      M_A    0.0000
    850 H         106.0273   40.2615   30.8580 H       166      M_A    0.0000
    851 H         109.3986   42.9958   32.1944 H       166      M_A    0.0000
    852 H         109.7599   40.6260   31.1911 H       166      M_A    0.0000
    853 C         108.6963   42.7935   29.0541 C.3     167      M_A    0.0000
    854 C         110.4028   42.0553   27.7644 C.3     167      M_A    0.0000
    855 H         107.2784   42.4127   28.3702 H       167      M_A    0.0000
    856 H         108.7412   44.4088   29.1632 H       167      M_A    0.0000
    857 H         111.7670   41.9860   28.6347 H       167      M_A    0.0000
    858 H         110.1006   40.5486   27.2526 H       167      M_A    0.0000
    859 C         110.7606   43.4109   25.9230 C.3     168      M_A    0.0000
    860 C         110.3432   42.3387   23.9747 C.3     168      M_A    0.0000
    861 H         109.8176   44.7217   26.0486 H       168      M_A    0.0000
    862 H         112.2926   43.9357   25.9510 H       168      M_A    0.0000
    863 H         111.4896   42.6955   22.8877 H       168      M_A    0.0000
    864 H         110.3986   40.7357   24.1999 H       168      M_A    0.0000
    865 C         108.2781   42.8969   23.0913 C.3     169      M_A    0.0000
    866 C         108.4343   43.6799   20.9741 C.2     169      M_A    0.0000
    867 H         107.3227   41.5896   23.1308 H       169      M_A    0.0000
    868 H         107.5855   44.0080   24.0447 H       169      M_A    0.0000
    869 H         109.3897   44.9872   20.9346 H       169      M_A    0.0000
    870 H         109.1269   42.5687   20.0207 H       169      M_A    0.0000
    871 C         120.9737   50.5595    6.5941 C.2     170      M_A    0.0000
    872 C         120.1102   49.8822    6.2769 C.3     170      M_A    0.0000
    873 H         121.5829   50.5100    6.0510 H       170      M_A    0.0000
    874 H         121.2773   50.3097    7.3110 H       170      M_A    0.0000
    875 H         119.9088   49.3793    6.8894 H       170      M_A    0.0000
    876 H         119.4467   50.3314    6.1140 H       170      M_A    0.0000
    877 C         120.3723   49.2423    5.3351 C.3     171      M_A    0.0000
    878 C         121.0856   48.3842    5.5795 C.3     171      M_A    0.0000
    879 H         119.6796   48.9485    5.0149 H       171      M_A    0.0000
    880 H         120.7041   49.7302    4.7690 H       171      M_A    0.0000
    881 H         121.5667   48.2279    4.9370 H       171      M_A    0.0000
    882 H         121.5789   48.5966    6.1960 H       171      M_A    0.0000
    883 C         120.5177   47.4058    5.8715 C.3     172      M_A    0.0000
    884 C         121.2306   46.5607    6.1589 C.3     172      M_A    0.0000
    885 H         120.0124   47.5699    6.4931 H       172      M_A    0.0000
    886 H         120.0489   47.1754    5.2424 H       172      M_A    0.0000
    887 H         121.7482   46.4093    5.5442 H       172      M_A    0.0000
    888 H         121.6864   46.7842    6.7999 H       172      M_A    0.0000
    889 C         120.6637   45.5745    6.4254 C.3     173      M_A    0.0000
    890 C         120.6392   45.3798    7.5508 C.3     173      M_A    0.0000
    891 H         119.9018   45.6210    6.1323 H       173      M_A    0.0000
    892 H         121.0255   44.9502    6.0407 H       173      M_A    0.0000
    893 H         120.6960   44.5774    7.6978 H       173      M_A    0.0000
    894 H         121.2846   45.7305    7.9101 H       173      M_A    0.0000
    895 C         119.6637   45.7859    8.0493 C.3     174      M_A    0.0000
    896 C         118.9967   44.9461    8.4430 C.3     174      M_A    0.0000
    897 H         119.8696   46.2897    8.6595 H       174      M_A    0.0000
    898 H         119.2552   46.2351    7.5017 H       174      M_A    0.0000
    899 H         119.4357   44.2638    8.5448 H       174      M_A    0.0000
    900 H         118.6990   45.1457    9.1779 H       174      M_A    0.0000
    901 C         118.1042   44.7161    7.7249 C.3     175      M_A    0.0000
    902 C         117.3820   43.9478    8.1643 C.3     175      M_A    0.0000
    903 H         117.7084   45.4134    7.5646 H       175      M_A    0.0000
    904 H         118.4017   44.4460    7.0128 H       175      M_A    0.0000
    905 H         117.7582   43.2270    8.2511 H       175      M_A    0.0000
    906 H         117.1454   44.1807    8.9115 H       175      M_A    0.0000
    907 C         116.4336   43.7998    7.4980 C.3     176      M_A    0.0000
    908 C         116.2539   42.7020    7.2384 C.3     176      M_A    0.0000
    909 H         115.7849   44.1047    7.8915 H       176      M_A    0.0000
    910 H         116.5210   44.2391    6.8139 H       176      M_A    0.0000
    911 H         116.5622   42.5344    6.4998 H       176      M_A    0.0000
    912 H         116.6450   42.2203    7.7709 H       176      M_A    0.0000
    913 C         115.1186   42.4257    7.2441 C.3     177      M_A    0.0000
    914 C         114.9054   41.4592    6.6738 C.3     177      M_A    0.0000
    915 H         114.8685   42.3549    8.0193 H       177      M_A    0.0000
    916 H         114.6954   43.0438    6.9163 H       177      M_A    0.0000
    917 H         114.1092   41.2782    6.7166 H       177      M_A    0.0000
    918 H         115.0818   41.5565    5.8813 H       177      M_A    0.0000
    919 C         115.5198   40.5558    7.0882 C.3     178      M_A    0.0000
    920 C         115.4538   39.6395    6.4092 C.3     178      M_A    0.0000
    921 H         116.2999   40.7851    7.1746 H       178      M_A    0.0000
    922 H         115.2451   40.3711    7.8358 H       178      M_A    0.0000
    923 H         114.7331   39.2668    6.5106 H       178      M_A    0.0000
    924 H         115.4916   39.8683    5.6251 H       178      M_A    0.0000
    925 C         116.3083   38.8707    6.6187 C.3     179      M_A    0.0000
    926 C         115.9087   37.8771    7.0163 C.3     179      M_A    0.0000
    927 H         116.7276   38.7478    5.9276 H       179      M_A    0.0000
    928 H         116.8312   39.1976    7.1557 H       179      M_A    0.0000
    929 H         115.5068   37.9973    7.7182 H       179      M_A    0.0000
    930 H         115.3704   37.5601    6.4888 H       179      M_A    0.0000
    931 C         116.7606   37.0984    7.1987 C.3     180      M_A    0.0000
    932 C         116.7481   36.6845    8.2633 C.3     180      M_A    0.0000
    933 H         116.6800   36.4887    6.6599 H       180      M_A    0.0000
    934 H         117.4804   37.4544    7.0446 H       180      M_A    0.0000
    935 H         116.0053   36.7784    8.5920 H       180      M_A    0.0000
    936 H         116.9008   35.8813    8.2537 H       180      M_A    0.0000
    937 C         117.5335   37.2089    8.9515 C.3     181      M_A    0.0000
    938 C         118.0473   36.4745    9.6597 C.2     181      M_A    0.0000
    939 H         118.0896   37.5805    8.4811 H       181      M_A    0.0000
    940 H         117.1584   37.7957    9.3799 H       181      M_A    0.0000
    941 H         117.4912   36.1029   10.1300 H       181      M_A    0.0000
    942 H         118.4224   35.8876    9.2313 H       181      M_A    0.0000
    943 C         113.4444   16.3300    5.9604 C.2     182      M_A    0.0000
    944 C         112.0737   17.0937    5.4254 C.3     182      M_A    0.0000
    945 H         113.8326   16.8423    6.9577 H       182      M_A    0.0000
    946 H         114.3122   16.4430    5.1591 H       182      M_A    0.0000
    947 H         111.5068   16.4088    4.6396 H       182      M_A    0.0000
    948 H         111.3250   17.2664    6.3296 H       182      M_A    0.0000
    949 C         112.4122   18.5897    4.7027 C.3     183      M_A    0.0000
    950 C         113.8834   19.1943    5.1694 C.3     183      M_A    0.0000
    951 H         112.3809   18.4606    3.5236 H       183      M_A    0.0000
    952 H         111.5500   19.3545    4.9848 H       183      M_A    0.0000
    953 H         114.1384   18.8382    6.2722 H       183      M_A    0.0000
    954 H         114.7398   18.7682    4.4672 H       183      M_A    0.0000
    955 C         113.9274   20.8885    5.1184 C.3     184      M_A    0.0000
    956 C         115.2049   21.5099    5.9726 C.3     184      M_A    0.0000
    957 H         113.9883   21.2355    3.9853 H       184      M_A    0.0000
    958 H         112.9057   21.3108    5.5496 H       184      M_A    0.0000
    959 H         115.0926   21.2440    7.1235 H       184      M_A    0.0000
    960 H         116.2189   21.0147    5.6059 H       184      M_A    0.0000
    961 C         115.3287   23.1931    5.8101 C.3     185      M_A    0.0000
    962 C         115.0346   23.9852    7.2363 C.3     185      M_A    0.0000
    963 H         116.4144   23.4602    5.4128 H       185      M_A    0.0000
    964 H         114.5631   23.5544    4.9787 H       185      M_A    0.0000
    965 H         115.1817   23.2441    8.1512 H       185      M_A    0.0000
    966 H         115.8169   24.8655    7.3817 H       185      M_A    0.0000
    967 C         113.4678   24.6302    7.3019 C.3     186      M_A    0.0000
    968 C         113.4000   26.0265    8.1928 C.3     186      M_A    0.0000
    969 H         113.0919   24.8350    6.1952 H       186      M_A    0.0000
    970 H         112.7384   23.8166    7.7644 H       186      M_A    0.0000
    971 H         113.1507   25.7749    9.3253 H       186      M_A    0.0000
    972 H         114.4579   26.5639    8.1881 H       186      M_A    0.0000
    973 C         112.2348   27.1084    7.6041 C.3     187      M_A    0.0000
    974 C         111.5297   27.9929    8.8158 C.3     187      M_A    0.0000
    975 H         112.7486   27.8331    6.8174 H       187      M_A    0.0000
    976 H         111.4078   26.4957    7.0135 H       187      M_A    0.0000
    977 H         110.5007   27.4963    9.1362 H       187      M_A    0.0000
    978 H         112.2236   27.9901    9.7783 H       187      M_A    0.0000
    979 C         111.2413   29.5989    8.3548 C.3     188      M_A    0.0000
    980 C         109.6239   29.9268    8.1981 C.3     188      M_A    0.0000
    981 H         111.7266   30.3214    9.1613 H       188      M_A    0.0000
    982 H         111.8001   29.8086    7.3293 H       188      M_A    0.0000
    983 H         109.2904   29.7981    7.0667 H       188      M_A    0.0000
    984 H         108.9882   29.1502    8.8311 H       188      M_A    0.0000
    985 C         109.2341   31.4963    8.7076 C.3     189      M_A    0.0000
    986 C         108.2740   32.2912    7.6148 C.3     189      M_A    0.0000
    987 H         108.6873   31.4324    9.7588 H       189      M_A    0.0000
    988 H         110.2391   32.1022    8.8826 H       189      M_A    0.0000
    989 H         107.7341   31.5099    6.9035 H       189      M_A    0.0000
    990 H         107.4170   32.8844    8.1821 H       189      M_A    0.0000
    991 C         109.1539   33.3820    6.6604 C.3     190      M_A    0.0000
    992 C         108.6633   34.9496    6.8836 C.3     190      M_A    0.0000
    993 H         110.3064   33.2752    6.9216 H       190      M_A    0.0000
    994 H         109.0332   33.0762    5.5203 H       190      M_A    0.0000
    995 H         107.7152   35.1793    6.2081 H       190      M_A    0.0000
    996 H         108.3274   35.1144    8.0096 H       190      M_A    0.0000
    997 C         109.8844   36.0646    6.5088 C.3     191      M_A    0.0000
    998 C         109.6941   37.4998    7.3163 C.3     191      M_A    0.0000
    999 H         110.9361   35.5841    6.7754 H       191      M_A    0.0000
   1000 H         109.8834   36.2536    5.3374 H       191      M_A    0.0000
   1001 H         108.5403   37.7494    7.4359 H       191      M_A    0.0000
   1002 H         110.1392   37.4119    8.4127 H       191      M_A    0.0000
   1003 C         110.4529   38.7904    6.5203 C.3     192      M_A    0.0000
   1004 C         110.1583   40.2447    7.2594 C.3     192      M_A    0.0000
   1005 H         111.6205   38.5827    6.4818 H       192      M_A    0.0000
   1006 H         110.0750   38.8215    5.3959 H       192      M_A    0.0000
   1007 H         109.9346   41.0774    6.4443 H       192      M_A    0.0000
   1008 H         109.1901   40.1661    7.9408 H       192      M_A    0.0000
   1009 C         111.4611   40.7540    8.2176 C.3     193      M_A    0.0000
   1010 C         111.0796   42.0725    9.1472 C.3     193      M_A    0.0000
   1011 H         111.8018   39.8528    8.9102 H       193      M_A    0.0000
   1012 H         112.3800   41.0068    7.5107 H       193      M_A    0.0000
   1013 H         111.0821   43.0544    8.4810 H       193      M_A    0.0000
   1014 H         109.9818   41.9591    9.5829 H       193      M_A    0.0000
   1015 C         112.1602   42.2841   10.4365 C.3     194      M_A    0.0000
   1016 C         111.4110   42.8691   11.7946 C.3     194      M_A    0.0000
   1017 H         112.6799   41.2443   10.6745 H       194      M_A    0.0000
   1018 H         113.0217   43.0255   10.0958 H       194      M_A    0.0000
   1019 H         110.4697   43.5240   11.4898 H       194      M_A    0.0000
   1020 H         111.0021   41.9704   12.4528 H       194      M_A    0.0000
   1021 C         112.4497   43.8140   12.7449 C.3     195      M_A    0.0000
   1022 C         113.2063   42.9256   13.9223 C.3     195      M_A    0.0000
   1023 H         113.2556   44.3242   12.0391 H       195      M_A    0.0000
   1024 H         111.8233   44.6931   13.2378 H       195      M_A    0.0000
   1025 H         113.7947   43.6451   14.6599 H       195      M_A    0.0000
   1026 H         112.4019   42.3498   14.5776 H       195      M_A    0.0000
   1027 C         114.2941   41.7969   13.2763 C.3     196      M_A    0.0000
   1028 C         115.7391   42.4892   12.8510 C.3     196      M_A    0.0000
   1029 H         114.4739   40.9383   14.0753 H       196      M_A    0.0000
   1030 H         113.7952   41.2830   12.3303 H       196      M_A    0.0000
   1031 H         115.7250   42.7874   11.7026 H       196      M_A    0.0000
   1032 H         115.9046   43.4930   13.4617 H       196      M_A    0.0000
   1033 C         117.0538   41.4559   13.1313 C.3     197      M_A    0.0000
   1034 C         118.4380   41.9847   12.3880 C.3     197      M_A    0.0000
   1035 H         117.2286   41.3681   14.3016 H       197      M_A    0.0000
   1036 H         116.7749   40.3689   12.7458 H       197      M_A    0.0000
   1037 H         118.1671   42.7360   11.5105 H       197      M_A    0.0000
   1038 H         119.1084   42.5885   13.1587 H       197      M_A    0.0000
   1039 C         119.3534   40.7076   11.7509 C.3     198      M_A    0.0000
   1040 C         120.0202   41.0848   10.2809 C.3     198      M_A    0.0000
   1041 H         120.2076   40.4260   12.5249 H       198      M_A    0.0000
   1042 H         118.6575   39.7520   11.6489 H       198      M_A    0.0000
   1043 H         119.9259   42.2502   10.0783 H       198      M_A    0.0000
   1044 H         121.1796   40.8321   10.2831 H       198      M_A    0.0000
   1045 C         119.2807   40.2469    9.0058 C.3     199      M_A    0.0000
   1046 C         119.8588   40.7181    7.5254 C.3     199      M_A    0.0000
   1047 H         119.4566   39.0835    9.1598 H       199      M_A    0.0000
   1048 H         118.1087   40.4245    9.0603 H       199      M_A    0.0000
   1049 H         119.4948   41.8202    7.2785 H       199      M_A    0.0000
   1050 H         121.0449   40.7468    7.5421 H       199      M_A    0.0000
   1051 C         119.3547   39.6841    6.2798 C.3     200      M_A    0.0000
   1052 C         120.6302   38.9433    5.5233 C.3     200      M_A    0.0000
   1053 H         118.6212   38.8688    6.7329 H       200      M_A    0.0000
   1054 H         118.7239   40.3108    5.4941 H       200      M_A    0.0000
   1055 H         120.9180   39.5361    4.5365 H       200      M_A    0.0000
   1056 H         121.5871   38.9643    6.2246 H       200      M_A    0.0000
   1057 C         120.2879   37.3340    5.1139 C.3     201      M_A    0.0000
   1058 C         121.0155   36.2558    6.1416 C.3     201      M_A    0.0000
   1059 H         119.1117   37.1779    5.1268 H       201      M_A    0.0000
   1060 H         120.6453   37.1385    3.9995 H       201      M_A    0.0000
   1061 H         122.0317   35.8658    5.6692 H       201      M_A    0.0000
   1062 H         121.2979   36.7928    7.1613 H       201      M_A    0.0000
   1063 C         120.0241   34.9231    6.4820 C.3     202      M_A    0.0000
   1064 C         120.1327   34.4478    8.0664 C.3     202      M_A    0.0000
   1065 H         118.9019   35.2038    6.2174 H       202      M_A    0.0000
   1066 H         120.3290   34.0270    5.7665 H       202      M_A    0.0000
   1067 H         120.0679   33.2654    8.1417 H       202      M_A    0.0000
   1068 H         121.1863   34.7605    8.5137 H       202      M_A    0.0000
   1069 C         118.9091   35.1243    9.0255 C.3     203      M_A    0.0000
   1070 C         118.0041   33.9691    9.7965 C.2     203      M_A    0.0000
   1071 H         119.4051   35.8510    9.8217 H       203      M_A    0.0000
   1072 H         118.2123   35.7959    8.3390 H       203      M_A    0.0000
   1073 H         117.5081   33.2425    9.0003 H       203      M_A    0.0000
   1074 H         118.7009   33.2976   10.4831 H       203      M_A    0.0000
   1075 C         131.9355   14.2421   18.1467 C.2     204      M_A    0.0000
   1076 C         131.7816   13.0061   17.2537 C.3     204      M_A    0.0000
   1077 H         131.4065   14.0889   19.0956 H       204      M_A    0.0000
   1078 H         131.4738   15.1135   17.6659 H       204      M_A    0.0000
   1079 H         132.1428   13.2260   16.2415 H       204      M_A    0.0000
   1080 H         132.4001   12.1853   17.6375 H       204      M_A    0.0000
   1081 C         130.2942   12.5189   17.1647 C.3     205      M_A    0.0000
   1082 C         129.3080   13.5628   17.7001 C.3     205      M_A    0.0000
   1083 H         130.0614   12.2831   16.1188 H       205      M_A    0.0000
   1084 H         130.1943   11.5831   17.7284 H       205      M_A    0.0000
   1085 H         129.6143   13.8910   18.7012 H       205      M_A    0.0000
   1086 H         129.3186   14.4535   17.0597 H       205      M_A    0.0000
   1087 C         127.8424   13.0119   17.7754 C.3     206      M_A    0.0000
   1088 C         126.8596   14.0493   18.3293 C.3     206      M_A    0.0000
   1089 H         127.5309   12.6971   16.7716 H       206      M_A    0.0000
   1090 H         127.8344   12.1129   18.4041 H       206      M_A    0.0000
   1091 H         125.8390   13.6473   18.3123 H       206      M_A    0.0000
   1092 H         127.0947   14.2675   19.3785 H       206      M_A    0.0000
   1093 C         126.8886   15.3890   17.5158 C.3     207      M_A    0.0000
   1094 C         126.5616   16.6058   18.3885 C.3     207      M_A    0.0000
   1095 H         127.8811   15.5065   17.0633 H       207      M_A    0.0000
   1096 H         126.1719   15.3159   16.6885 H       207      M_A    0.0000
   1097 H         125.4759   16.6946   18.5184 H       207      M_A    0.0000
   1098 H         126.9892   16.4759   19.3904 H       207      M_A    0.0000
   1099 C         127.1080   17.9409   17.7751 C.3     208      M_A    0.0000
   1100 C         127.4245   18.9870   18.8496 C.3     208      M_A    0.0000
   1101 H         128.0087   17.7185   17.1897 H       208      M_A    0.0000
   1102 H         126.3650   18.3370   17.0718 H       208      M_A    0.0000
   1103 H         126.5414   19.6092   19.0406 H       208      M_A    0.0000
   1104 H         127.6711   18.4909   19.7965 H       208      M_A    0.0000
   1105 C         128.6186   19.9166   18.4403 C.3     209      M_A    0.0000
   1106 C         128.3467   21.3892   18.7670 C.3     209      M_A    0.0000
   1107 H         129.5243   19.5774   18.9580 H       209      M_A    0.0000
   1108 H         128.8067   19.7982   17.3660 H       209      M_A    0.0000
   1109 H         127.4130   21.7138   18.2913 H       209      M_A    0.0000
   1110 H         128.2100   21.5156   19.8482 H       209      M_A    0.0000
   1111 C         129.5090   22.3276   18.2916 C.3     210      M_A    0.0000
   1112 C         129.2314   23.8015   18.6070 C.3     210      M_A    0.0000
   1113 H         130.4410   22.0086   18.7744 H       210      M_A    0.0000
   1114 H         129.6518   22.1943   17.2120 H       210      M_A    0.0000
   1115 H         130.0352   24.2104   19.2315 H       210      M_A    0.0000
   1116 H         129.2222   24.3892   17.6806 H       210      M_A    0.0000
   1117 C         127.8642   24.0034   19.3470 C.3     211      M_A    0.0000
   1118 C         127.3565   25.4460   19.2459 C.3     211      M_A    0.0000
   1119 H         127.1256   23.3138   18.9197 H       211      M_A    0.0000
   1120 H         127.9869   23.7207   20.3999 H       211      M_A    0.0000
   1121 H         127.8511   26.0724   19.9985 H       211      M_A    0.0000
   1122 H         127.6141   25.8677   18.2665 H       211      M_A    0.0000
   1123 C         125.8049   25.5452   19.4465 C.3     212      M_A    0.0000
   1124 C         125.3733   26.9205   19.9672 C.3     212      M_A    0.0000
   1125 H         125.3105   25.3327   18.4905 H       212      M_A    0.0000
   1126 H         125.4880   24.7617   20.1460 H       212      M_A    0.0000
   1127 H         125.8671   27.3870   20.7103 H       212      M_A    0.0000
   1128 H         125.3246   27.5705   19.1999 H       212      M_A    0.0000
   1129 C         124.0368   26.6267   20.4115 C.3     213      M_A    0.0000
   1130 C         123.0684   26.9674   19.4500 C.3     213      M_A    0.0000
   1131 H         123.9759   25.6459   20.6304 H       213      M_A    0.0000
   1132 H         123.8628   27.1256   21.2686 H       213      M_A    0.0000
   1133 H         123.1073   27.9545   19.2556 H       213      M_A    0.0000
   1134 H         123.2617   26.4941   18.5826 H       213      M_A    0.0000
   1135 C         121.7359   26.6307   19.8751 C.3     214      M_A    0.0000
   1136 C         120.7608   27.0422   18.9486 C.3     214      M_A    0.0000
   1137 H         121.6815   25.6350   20.0142 H       214      M_A    0.0000
   1138 H         121.5633   27.0575   20.7705 H       214      M_A    0.0000
   1139 H         121.0044   27.9417   18.5676 H       214      M_A    0.0000
   1140 H         120.7274   26.3996   18.1742 H       214      M_A    0.0000
   1141 C         119.4508   27.1273   19.5374 C.3     215      M_A    0.0000
   1142 C         118.4316   26.8269   18.6157 C.3     215      M_A    0.0000
   1143 H         119.4053   26.4960   20.3204 H       215      M_A    0.0000
   1144 H         119.3204   28.0551   19.9060 H       215      M_A    0.0000
   1145 H         118.4886   27.4462   17.8240 H       215      M_A    0.0000
   1146 H         118.5515   25.8923   18.2609 H       215      M_A    0.0000
   1147 C         117.1205   26.9374   19.1975 C.3     216      M_A    0.0000
   1148 C         116.1919   26.0753   18.5868 C.3     216      M_A    0.0000
   1149 H         117.1840   26.7350   20.1817 H       216      M_A    0.0000
   1150 H         116.8096   27.8917   19.1182 H       216      M_A    0.0000
   1151 H         115.7361   26.5450   17.8217 H       216      M_A    0.0000
   1152 H         116.6664   25.2783   18.1953 H       216      M_A    0.0000
   1153 C         115.1899   25.6115   19.5092 C.3     217      M_A    0.0000
   1154 C         114.2389   24.7806   18.8898 C.3     217      M_A    0.0000
   1155 H         115.6437   25.1170   20.2597 H       217      M_A    0.0000
   1156 H         114.7348   26.4091   19.9221 H       217      M_A    0.0000
   1157 H         114.7011   24.0976   18.3124 H       217      M_A    0.0000
   1158 H         113.7222   24.2687   19.5859 H       217      M_A    0.0000
   1159 C         113.3123   25.5235   18.0778 C.3     218      M_A    0.0000
   1160 C         111.9953   25.0443   18.1976 C.3     218      M_A    0.0000
   1161 H         113.3523   26.4935   18.3446 H       218      M_A    0.0000
   1162 H         113.6112   25.4752   17.1175 H       218      M_A    0.0000
   1163 H         111.7850   24.8504   19.1630 H       218      M_A    0.0000
   1164 H         111.3427   25.7489   17.8955 H       218      M_A    0.0000
   1165 C         111.7776   23.8494   17.4265 C.3     219      M_A    0.0000
   1166 C         110.5510   23.2331   17.7333 C.3     219      M_A    0.0000
   1167 H         111.8108   24.0842   16.4480 H       219      M_A    0.0000
   1168 H         112.5370   23.2106   17.5965 H       219      M_A    0.0000
   1169 H         110.6942   22.4918   18.3994 H       219      M_A    0.0000
   1170 H         109.9305   23.8964   18.1677 H       219      M_A    0.0000
   1171 C         109.9067   22.6905   16.5670 C.3     220      M_A    0.0000
   1172 C         110.1769   21.3205   16.3976 C.3     220      M_A    0.0000
   1173 H         108.9141   22.8394   16.6457 H       220      M_A    0.0000
   1174 H         110.2131   23.2054   15.7578 H       220      M_A    0.0000
   1175 H         110.6658   20.9630   17.2019 H       220      M_A    0.0000
   1176 H         109.3150   20.8044   16.3302 H       220      M_A    0.0000
   1177 C         110.9656   21.0615   15.2226 C.3     221      M_A    0.0000
   1178 C         111.7110   19.8737   15.3320 C.3     221      M_A    0.0000
   1179 H         110.3531   21.0124   14.4249 H       221      M_A    0.0000
   1180 H         111.5815   21.8425   15.0665 H       221      M_A    0.0000
   1181 H         111.8111   19.6169   16.3004 H       221      M_A    0.0000
   1182 H         111.2231   19.1171   14.8813 H       221      M_A    0.0000
   1183 C         113.0197   19.9954   14.7469 C.3     222      M_A    0.0000
   1184 C         113.2411   19.0451   13.7337 C.3     222      M_A    0.0000
   1185 H         113.1243   20.9257   14.3765 H       222      M_A    0.0000
   1186 H         113.7103   19.8937   15.4725 H       222      M_A    0.0000
   1187 H         113.4873   18.1577   14.1406 H       222      M_A    0.0000
   1188 H         112.3951   18.8975   13.2081 H       222      M_A    0.0000
   1189 C         114.2852   19.4461   12.8289 C.3     223      M_A    0.0000
   1190 C         114.4583   18.5305   11.7752 C.3     223      M_A    0.0000
   1191 H         114.0643   20.3572   12.4617 H       223      M_A    0.0000
   1192 H         115.1435   19.5433   13.3463 H       223      M_A    0.0000
   1193 H         114.1661   17.6116   12.0649 H       223      M_A    0.0000
   1194 H         113.8750   18.7870   10.9957 H       223      M_A    0.0000
   1195 C         115.8246   18.4637   11.3298 C.3     224      M_A    0.0000
   1196 C         115.9301   18.0257    9.9973 C.3     224      M_A    0.0000
   1197 H         116.2428   19.3743   11.4280 H       224      M_A    0.0000
   1198 H         116.3344   17.8442   11.9382 H       224      M_A    0.0000
   1199 H         115.1351   17.4566    9.7570 H       224      M_A    0.0000
   1200 H         115.9199   18.8152    9.3726 H       224      M_A    0.0000
   1201 C         117.1304   17.2670    9.7661 C.3     225      M_A    0.0000
   1202 C         118.2779   18.0799    9.7386 C.3     225      M_A    0.0000
   1203 H         117.2180   16.5704   10.4878 H       225      M_A    0.0000
   1204 H         117.0379   16.7707    8.8950 H       225      M_A    0.0000
   1205 H         118.0313   19.0159    9.4615 H       225      M_A    0.0000
   1206 H         118.6758   18.1468   10.6610 H       225      M_A    0.0000
   1207 C         119.2801   17.5781    8.8366 C.3     226      M_A    0.0000
   1208 C         120.5481   17.4972    9.4401 C.3     226      M_A    0.0000
   1209 H         118.9955   16.6699    8.5081 H       226      M_A    0.0000
   1210 H         119.3197   18.1783    8.0291 H       226      M_A    0.0000
   1211 H         121.2552   17.8253    8.8029 H       226      M_A    0.0000
   1212 H         120.5851   18.0978   10.2473 H       226      M_A    0.0000
   1213 C         120.8747   16.1558    9.8447 C.3     227      M_A    0.0000
   1214 C         122.2174   15.8311    9.5796 C.3     227      M_A    0.0000
   1215 H         120.6837   16.0580   10.8284 H       227      M_A    0.0000
   1216 H         120.2635   15.5146    9.3663 H       227      M_A    0.0000
   1217 H         122.7799   16.6661    9.5738 H       227      M_A    0.0000
   1218 H         122.5811   15.2425   10.3109 H       227      M_A    0.0000
   1219 C         122.3764   15.1562    8.3190 C.3     228      M_A    0.0000
   1220 C         123.4714   14.2734    8.3213 C.3     228      M_A    0.0000
   1221 H         121.5288   14.6544    8.1103 H       228      M_A    0.0000
   1222 H         122.4902   15.8455    7.5940 H       228      M_A    0.0000
   1223 H         124.3337   14.7928    8.3008 H       228      M_A    0.0000
   1224 H         123.4786   13.7346    9.1718 H       228      M_A    0.0000
   1225 C         123.4468   13.3712    7.2009 C.3     229      M_A    0.0000
   1226 C         123.3414   12.0269    7.6012 C.3     229      M_A    0.0000
   1227 H         122.6733   13.6155    6.6045 H       229      M_A    0.0000
   1228 H         124.2841   13.5051    6.6580 H       229      M_A    0.0000
   1229 H         123.9593   11.4533    7.0509 H       229      M_A    0.0000
   1230 H         123.6327   11.9283    8.5600 H       229      M_A    0.0000
   1231 C         122.0005   11.5224    7.4698 C.3     230      M_A    0.0000
   1232 C         121.2743   11.6195    8.6705 C.3     230      M_A    0.0000
   1233 H         121.5314   12.0339    6.7404 H       230      M_A    0.0000
   1234 H         122.0429   10.5626    7.1686 H       230      M_A    0.0000
   1235 H         120.7797   10.7601    8.8453 H       230      M_A    0.0000
   1236 H         121.9038   11.7534    9.4448 H       230      M_A    0.0000
   1237 C         120.3281   12.7031    8.6494 C.3     231      M_A    0.0000
   1238 C         119.0094   12.2555    8.4512 C.3     231      M_A    0.0000
   1239 H         120.3942   13.2086    9.5176 H       231      M_A    0.0000
   1240 H         120.5877   13.3464    7.9197 H       231      M_A    0.0000
   1241 H         118.8630   12.0320    7.4804 H       231      M_A    0.0000
   1242 H         118.8510   11.4074    8.9702 H       231      M_A    0.0000
   1243 C         118.0351   13.2344    8.8538 C.3     232      M_A    0.0000
   1244 C         116.7406   12.9130    8.4072 C.3     232      M_A    0.0000
   1245 H         118.0454   13.3086    9.8579 H       232      M_A    0.0000
   1246 H         118.3109   14.1336    8.4946 H       232      M_A    0.0000
   1247 H         116.4322   12.0538    8.8320 H       232      M_A    0.0000
   1248 H         116.0899   13.6264    8.6926 H       232      M_A    0.0000
   1249 C         116.6765   12.7723    6.9769 C.3     233      M_A    0.0000
   1250 C         115.4854   13.2959    6.4425 C.2     233      M_A    0.0000
   1251 H         117.4713   13.2368    6.5692 H       233      M_A    0.0000
   1252 H         116.7603   11.7966    6.7427 H       233      M_A    0.0000
   1253 H         114.6906   12.8314    6.8502 H       233      M_A    0.0000
   1254 H         115.4016   14.2715    6.6767 H       233      M_A    0.0000
   1255 C          91.7346   19.1735    7.2015 C.2     234      M_A    0.0000
   1256 C          92.3480   20.1361    7.8678 C.3     234      M_A    0.0000
   1257 H          91.7872   18.3610    7.6834 H       234      M_A    0.0000
   1258 H          92.1666   19.0263    6.3728 H       234      M_A    0.0000
   1259 H          92.0203   20.9802    7.5935 H       234      M_A    0.0000
   1260 H          92.1623   20.0600    8.7923 H       234      M_A    0.0000
   1261 C          93.6877   20.1097    7.6888 C.3     235      M_A    0.0000
   1262 C          94.1456   18.8823    7.5137 C.3     235      M_A    0.0000
   1263 H          93.9062   20.6471    6.9415 H       235      M_A    0.0000
   1264 H          94.1036   20.5070    8.4400 H       235      M_A    0.0000
   1265 H          93.6476   18.2724    8.0382 H       235      M_A    0.0000
   1266 H          94.0333   18.6198    6.6118 H       235      M_A    0.0000
   1267 C          95.4527   18.7716    7.8402 C.3     236      M_A    0.0000
   1268 C          95.8765   17.5206    7.7936 C.3     236      M_A    0.0000
   1269 H          95.9610   19.3085    7.2498 H       236      M_A    0.0000
   1270 H          95.5813   19.1256    8.7081 H       236      M_A    0.0000
   1271 H          95.2937   16.9621    8.2869 H       236      M_A    0.0000
   1272 H          95.8631   17.2066    6.9012 H       236      M_A    0.0000
   1273 C          97.1289   17.3852    8.2844 C.3     237      M_A    0.0000
   1274 C          97.5127   16.1216    8.3362 C.3     237      M_A    0.0000
   1275 H          97.7240   17.8831    7.7430 H       237      M_A    0.0000
   1276 H          97.1610   17.7698    9.1482 H       237      M_A    0.0000
   1277 H          96.8492   15.5982    8.7616 H       237      M_A    0.0000
   1278 H          97.6112   15.7763    7.4609 H       237      M_A    0.0000
   1279 C          98.6806   15.9677    8.9994 C.3     238      M_A    0.0000
   1280 C          99.6177   15.4223    8.2435 C.3     238      M_A    0.0000
   1281 H          98.9674   16.8132    9.3121 H       238      M_A    0.0000
   1282 H          98.5287   15.4323    9.7644 H       238      M_A    0.0000
   1283 H          99.3248   14.5836    7.9181 H       238      M_A    0.0000
   1284 H          99.7806   15.9656    7.4863 H       238      M_A    0.0000
   1285 C         100.7792   15.2484    8.9130 C.3     239      M_A    0.0000
   1286 C         101.7678   15.9550    8.3929 C.3     239      M_A    0.0000
   1287 H         100.6486   15.4906    9.8182 H       239      M_A    0.0000
   1288 H         100.9998   14.3285    8.9070 H       239      M_A    0.0000
   1289 H         102.2597   15.4247    7.7831 H       239      M_A    0.0000
   1290 H         101.4210   16.6844    7.9003 H       239      M_A    0.0000
   1291 C         102.6111   16.4286    9.3374 C.3     240      M_A    0.0000
   1292 C         103.4893   15.5203    9.7256 C.3     240      M_A    0.0000
   1293 H         103.0596   17.1871    8.9930 H       240      M_A    0.0000
   1294 H         102.1034   16.7262   10.0780 H       240      M_A    0.0000
   1295 H         103.1217   14.6535    9.6335 H       240      M_A    0.0000
   1296 H         104.2548   15.5511    9.1705 H       240      M_A    0.0000
   1297 C         103.8747   15.6961   11.0094 C.3     241      M_A    0.0000
   1298 C         104.9568   14.9983   11.3076 C.3     241      M_A    0.0000
   1299 H         104.0317   16.6172   11.1573 H       241      M_A    0.0000
   1300 H         103.1612   15.4473   11.5787 H       241      M_A    0.0000
   1301 H         104.7462   14.3279   11.9411 H       241      M_A    0.0000
   1302 H         105.2781   14.5528   10.5373 H       241      M_A    0.0000
   1303 C         105.9453   15.7739   11.8064 C.3     242      M_A    0.0000
   1304 C         107.1424   15.2516   11.6040 C.3     242      M_A    0.0000
   1305 H         105.8928   16.6296   11.4063 H       242      M_A    0.0000
   1306 H         105.7978   15.8977   12.7327 H       242      M_A    0.0000
   1307 H         107.4314   15.4350   10.7220 H       242      M_A    0.0000
   1308 H         107.7731   15.6510   12.1851 H       242      M_A    0.0000
   1309 C         107.1572   13.9138   11.7980 C.3     243      M_A    0.0000
   1310 C         107.9272   13.2893   10.9239 C.3     243      M_A    0.0000
   1311 H         107.4556   13.7366   12.6781 H       243      M_A    0.0000
   1312 H         106.2710   13.5876   11.7408 H       243      M_A    0.0000
   1313 H         108.7914   13.6743   10.9198 H       243      M_A    0.0000
   1314 H         108.0345   12.3836   11.1751 H       243      M_A    0.0000
   1315 C         107.4229   13.3372    9.6706 C.3     244      M_A    0.0000
   1316 C         107.0937   12.1402    9.2170 C.3     244      M_A    0.0000
   1317 H         106.6658   13.9046    9.6680 H       244      M_A    0.0000
   1318 H         108.0630   13.7359    9.0993 H       244      M_A    0.0000
   1319 H         107.8400   11.7348    8.8001 H       244      M_A    0.0000
   1320 H         106.8455   11.5778    9.9361 H       244      M_A    0.0000
   1321 C         106.0738   12.1906    8.3312 C.3     245      M_A    0.0000
   1322 C         106.4981   12.2164    7.0797 C.3     245      M_A    0.0000
   1323 H         105.5135   11.4408    8.4683 H       245      M_A    0.0000
   1324 H         105.5504   12.9576    8.5121 H       245      M_A    0.0000
   1325 H         106.9377   11.4055    6.8694 H       245      M_A    0.0000
   1326 H         105.7625   12.2877    6.4891 H       245      M_A    0.0000
   1327 C         107.3450   13.2441    6.8469 C.3     246      M_A    0.0000
   1328 C         108.1978   12.9795    5.8725 C.3     246      M_A    0.0000
   1329 H         106.8385   14.0145    6.6345 H       246      M_A    0.0000
   1330 H         107.8144   13.4392    7.6448 H       246      M_A    0.0000
   1331 H         108.5117   12.0903    5.9486 H       246      M_A    0.0000
   1332 H         107.7631   13.0434    5.0346 H       246      M_A    0.0000
   1333 C         109.2583   13.8179    5.8781 C.3     247      M_A    0.0000
   1334 C         110.3857   13.2016    5.5684 C.3     247      M_A    0.0000
   1335 H         109.0944   14.5210    5.2667 H       247      M_A    0.0000
   1336 H         109.3296   14.2137    6.7344 H       247      M_A    0.0000
   1337 H         110.4381   12.3734    6.0228 H       247      M_A    0.0000
   1338 H         110.4046   13.0054    4.6431 H       247      M_A    0.0000
   1339 C         111.4751   13.9391    5.8798 C.3     248      M_A    0.0000
   1340 C         112.4513   13.2032    6.3822 C.3     248      M_A    0.0000
   1341 H         111.7735   14.3860    5.1012 H       248      M_A    0.0000
   1342 H         111.2230   14.6094    6.4980 H       248      M_A    0.0000
   1343 H         112.1934   12.8518    7.2219 H       248      M_A    0.0000
   1344 H         112.6223   12.4627    5.8188 H       248      M_A    0.0000
   1345 C         113.5955   13.9064    6.5369 C.3     249      M_A    0.0000
   1346 C         113.6603   14.5051    7.7134 C.2     249      M_A    0.0000
   1347 H         114.3304   13.3203    6.4302 H       249      M_A    0.0000
   1348 H         113.6559   14.5469    5.8432 H       249      M_A    0.0000
   1349 H         112.9254   15.0912    7.8201 H       249      M_A    0.0000
   1350 H         113.5999   13.8646    8.4071 H       249      M_A    0.0000
   1351 C          76.9446   24.7998    9.0173 C.2     250      M_A    0.0000
   1352 C          77.0908   25.5502   10.3457 C.3     250      M_A    0.0000
   1353 H          77.1134   23.7267    9.1709 H       250      M_A    0.0000
   1354 H          77.7081   25.1403    8.3069 H       250      M_A    0.0000
   1355 H          77.2731   26.6504   10.0223 H       250      M_A    0.0000
   1356 H          76.0629   25.5272   10.8854 H       250      M_A    0.0000
   1357 C          78.2712   25.1073   11.4245 C.3     251      M_A    0.0000
   1358 C          79.3063   24.0287   10.7946 C.3     251      M_A    0.0000
   1359 H          78.8446   26.0585   11.7633 H       251      M_A    0.0000
   1360 H          77.7656   24.6672   12.3727 H       251      M_A    0.0000
   1361 H          78.7299   23.2518   10.1523 H       251      M_A    0.0000
   1362 H          80.0527   24.5619   10.0826 H       251      M_A    0.0000
   1363 C          80.1650   23.2239   11.9643 C.3     252      M_A    0.0000
   1364 C          81.2658   22.2133   11.3330 C.3     252      M_A    0.0000
   1365 H          80.6865   24.0035   12.6488 H       252      M_A    0.0000
   1366 H          79.4224   22.6350   12.6352 H       252      M_A    0.0000
   1367 H          80.7404   21.4097   10.6800 H       252      M_A    0.0000
   1368 H          81.9845   22.7956   10.6310 H       252      M_A    0.0000
   1369 C          82.1622   21.4500   12.5022 C.3     253      M_A    0.0000
   1370 C          83.3222   20.5081   11.8705 C.3     253      M_A    0.0000
   1371 H          82.6348   22.2529   13.1952 H       253      M_A    0.0000
   1372 H          81.4505   20.8150   13.1645 H       253      M_A    0.0000
   1373 H          82.8483   19.6953   11.1898 H       253      M_A    0.0000
   1374 H          84.0247   21.1401   11.1956 H       253      M_A    0.0000
   1375 C          84.2327   19.7620   13.0398 C.3     254      M_A    0.0000
   1376 C          85.4366   18.8760   12.4095 C.3     254      M_A    0.0000
   1377 H          84.6646   20.5718   13.7512 H       254      M_A    0.0000
   1378 H          83.5379   19.0896   13.6829 H       254      M_A    0.0000
   1379 H          85.0061   18.0790   11.6830 H       254      M_A    0.0000
   1380 H          86.1424   19.5521   11.7826 H       254      M_A    0.0000
   1381 C          86.3301   18.1077   13.5777 C.3     255      M_A    0.0000
   1382 C          87.4175   17.0833   12.9454 C.3     255      M_A    0.0000
   1383 H          86.8669   18.9083   14.2252 H       255      M_A    0.0000
   1384 H          85.6085   17.5357   14.2851 H       255      M_A    0.0000
   1385 H          88.2257   17.6739   12.3570 H       255      M_A    0.0000
   1386 H          87.9708   16.5162   13.7943 H       255      M_A    0.0000
   1387 C          86.7190   15.9740   11.9281 C.3     256      M_A    0.0000
   1388 C          87.6303   15.6820   10.6182 C.3     256      M_A    0.0000
   1389 H          86.5390   14.9887   12.5156 H       256      M_A    0.0000
   1390 H          85.6744   16.3664   11.6070 H       256      M_A    0.0000
   1391 H          87.7574   16.6545    9.9967 H       256      M_A    0.0000
   1392 H          88.6955   15.3504   10.9400 H       256      M_A    0.0000
   1393 C          86.9756   14.5076    9.6458 C.3     257      M_A    0.0000
   1394 C          88.1102   13.6708    8.8433 C.3     257      M_A    0.0000
   1395 H          86.3407   13.7898   10.3015 H       257      M_A    0.0000
   1396 H          86.2445   15.0080    8.8951 H       257      M_A    0.0000
   1397 H          89.1352   13.7751    9.3790 H       257      M_A    0.0000
   1398 H          87.8467   12.5399    8.8451 H       257      M_A    0.0000
   1399 C          88.2735   14.1795    7.2724 C.3     258      M_A    0.0000
   1400 C          89.7305   14.8329    6.9861 C.3     258      M_A    0.0000
   1401 H          88.0969   13.2751    6.5659 H       258      M_A    0.0000
   1402 H          87.4382   14.9520    7.0405 H       258      M_A    0.0000
   1403 H          90.5521   14.0143    7.0431 H       258      M_A    0.0000
   1404 H          89.7673   15.2678    5.9101 H       258      M_A    0.0000
   1405 C          90.1015   16.0390    8.0634 C.3     259      M_A    0.0000
   1406 C          90.1015   17.5051    7.3690 C.2     259      M_A    0.0000
   1407 H          89.3347   16.0113    8.9350 H       259      M_A    0.0000
   1408 H          91.1426   15.8186    8.5281 H       259      M_A    0.0000
   1409 H          90.8683   17.5328    6.4974 H       259      M_A    0.0000
   1410 H          89.0604   17.7255    6.9043 H       259      M_A    0.0000
   1411 C          57.8879   20.0166   11.1943 C.2     260      M_A    0.0000
   1412 C          56.4830   20.0595   10.5832 C.3     260      M_A    0.0000
   1413 H          57.8951   20.5407   12.1580 H       260      M_A    0.0000
   1414 H          58.5972   20.5433   10.5439 H       260      M_A    0.0000
   1415 H          56.2203   19.3328   10.0699 H       260      M_A    0.0000
   1416 H          55.7840   20.2409   11.1654 H       260      M_A    0.0000
   1417 C          56.6577   21.1044    9.7866 C.3     261      M_A    0.0000
   1418 C          57.4326   21.9996   10.3136 C.3     261      M_A    0.0000
   1419 H          57.0126   20.8106    8.9816 H       261      M_A    0.0000
   1420 H          55.8295   21.4748    9.5933 H       261      M_A    0.0000
   1421 H          57.0773   22.8460   10.1804 H       261      M_A    0.0000
   1422 H          57.4855   21.8741   11.2311 H       261      M_A    0.0000
   1423 C          58.6568   21.9655    9.8065 C.3     262      M_A    0.0000
   1424 C          59.4613   22.7829   10.4099 C.3     262      M_A    0.0000
   1425 H          58.9810   21.0984    9.8658 H       262      M_A    0.0000
   1426 H          58.6121   22.1720    8.9033 H       262      M_A    0.0000
   1427 H          59.2446   23.6589   10.1952 H       262      M_A    0.0000
   1428 H          59.3658   22.7025   11.3291 H       262      M_A    0.0000
   1429 C          60.7296   22.5661   10.0916 C.3     263      M_A    0.0000
   1430 C          61.4755   22.3919   11.1369 C.3     263      M_A    0.0000
   1431 H          60.7764   21.8218    9.5399 H       263      M_A    0.0000
   1432 H          61.0404   23.2855    9.5953 H       263      M_A    0.0000
   1433 H          61.1489   22.8909   11.8474 H       263      M_A    0.0000
   1434 H          61.4498   21.5032   11.4015 H       263      M_A    0.0000
   1435 C          62.7365   22.7359   10.9172 C.3     264      M_A    0.0000
   1436 C          63.5650   22.0575   11.6471 C.3     264      M_A    0.0000
   1437 H          62.9284   22.6106   10.0183 H       264      M_A    0.0000
   1438 H          62.8328   23.6429   11.0862 H       264      M_A    0.0000
   1439 H          63.3303   22.1260   12.5419 H       264      M_A    0.0000
   1440 H          63.5188   21.1574   11.4277 H       264      M_A    0.0000
   1441 C          64.8165   22.4690   11.5010 C.3     265      M_A    0.0000
   1442 C          65.6464   21.4819   11.3731 C.3     265      M_A    0.0000
   1443 H          64.8643   23.0230   10.7585 H       265      M_A    0.0000
   1444 H          65.0487   22.9867   12.2349 H       265      M_A    0.0000
   1445 H          66.4350   21.6688   11.8244 H       265      M_A    0.0000
   1446 H          65.2927   20.7169   11.7604 H       265      M_A    0.0000
   1447 C          65.9308   21.2259   10.1040 C.3     266      M_A    0.0000
   1448 C          66.6350   20.1468    9.9665 C.3     266      M_A    0.0000
   1449 H          65.1375   21.1507    9.6291 H       266      M_A    0.0000
   1450 H          66.3868   21.9509    9.7477 H       266      M_A    0.0000
   1451 H          66.1121   19.4011   10.1429 H       266      M_A    0.0000
   1452 H          66.9261   20.0665    9.0894 H       266      M_A    0.0000
   1453 C          67.6892   20.1291   10.7699 C.3     267      M_A    0.0000
   1454 C          68.7126   19.5506   10.2245 C.3     267      M_A    0.0000
   1455 H          67.9030   21.0014   11.0017 H       267      M_A    0.0000
   1456 H          67.4589   19.6934   11.5558 H       267      M_A    0.0000
   1457 H          68.7191   18.6480   10.4384 H       267      M_A    0.0000
   1458 H          68.6536   19.6049    9.3004 H       267      M_A    0.0000
   1459 C          69.8598   20.0898   10.6119 C.3     268      M_A    0.0000
   1460 C          70.5400   19.2980   11.3800 C.3     268      M_A    0.0000
   1461 H          70.3569   20.3076    9.8596 H       268      M_A    0.0000
   1462 H          69.6820   20.8860   11.0534 H       268      M_A    0.0000
   1463 H          70.1271   19.2254   12.2074 H       268      M_A    0.0000
   1464 H          70.5620   18.4445   11.0174 H       268      M_A    0.0000
   1465 C          71.7843   19.7184   11.5589 C.3     269      M_A    0.0000
   1466 C          71.8570   21.0081   11.6621 C.3     269      M_A    0.0000
   1467 H          72.1282   19.3184   12.3219 H       269      M_A    0.0000
   1468 H          72.3037   19.4264   10.8480 H       269      M_A    0.0000
   1469 H          71.0944   21.3377   12.0747 H       269      M_A    0.0000
   1470 H          72.5744   21.2442   12.2005 H       269      M_A    0.0000
   1471 C          71.9945   21.5994   10.4837 C.3     270      M_A    0.0000
   1472 C          72.2322   22.8684   10.5957 C.3     270      M_A    0.0000
   1473 H          72.6839   21.1863   10.0206 H       270      M_A    0.0000
   1474 H          71.2218   21.4630    9.9888 H       270      M_A    0.0000
   1475 H          72.1868   23.2751    9.7632 H       270      M_A    0.0000
   1476 H          71.5825   23.2683   11.1233 H       270      M_A    0.0000
   1477 C          73.4225   23.1116   11.1258 C.3     271      M_A    0.0000
   1478 C          74.0704   24.0284   10.4783 C.3     271      M_A    0.0000
   1479 H          73.3093   23.3668   12.0104 H       271      M_A    0.0000
   1480 H          73.9118   22.3236   11.1363 H       271      M_A    0.0000
   1481 H          73.4785   24.5574    9.9985 H       271      M_A    0.0000
   1482 H          74.5071   24.5899   11.0737 H       271      M_A    0.0000
   1483 C          74.9617   23.5172    9.6410 C.3     272      M_A    0.0000
   1484 C          75.0080   24.1630    8.5184 C.2     272      M_A    0.0000
   1485 H          75.7950   23.5275   10.0484 H       272      M_A    0.0000
   1486 H          74.7514   22.6269    9.4873 H       272      M_A    0.0000
   1487 H          74.1747   24.1527    8.1109 H       272      M_A    0.0000
   1488 H          75.2184   25.0533    8.6721 H       272      M_A    0.0000
   1489 C          83.2604   30.1134   24.8551 C.2     273      M_A    0.0000
   1490 C          83.1960   28.6898   24.7415 C.3     273      M_A    0.0000
   1491 H          82.3160   30.5059   24.8868 H       273      M_A    0.0000
   1492 H          83.7163   30.5109   24.0298 H       273      M_A    0.0000
   1493 H          84.1248   28.2842   24.8820 H       273      M_A    0.0000
   1494 H          82.5939   28.3062   25.4746 H       273      M_A    0.0000
   1495 C          82.6861   28.2603   23.4402 C.3     274      M_A    0.0000
   1496 C          83.7205   28.1624   22.4584 C.3     274      M_A    0.0000
   1497 H          82.2205   27.3558   23.5506 H       274      M_A    0.0000
   1498 H          81.9705   28.9233   23.1311 H       274      M_A    0.0000
   1499 H          84.0780   29.0940   22.2314 H       274      M_A    0.0000
   1500 H          84.5092   27.6279   22.8317 H       274      M_A    0.0000
   1501 C          83.2579   27.5225   21.2278 C.3     275      M_A    0.0000
   1502 C          84.3300   27.2516   20.3218 C.3     275      M_A    0.0000
   1503 H          82.7747   26.6535   21.4695 H       275      M_A    0.0000
   1504 H          82.5655   28.1291   20.7808 H       275      M_A    0.0000
   1505 H          85.0988   27.9076   20.4820 H       275      M_A    0.0000
   1506 H          84.7036   26.3141   20.4907 H       275      M_A    0.0000
   1507 C          83.9119   27.3476   18.9240 C.3     276      M_A    0.0000
   1508 C          84.2326   26.1695   18.1805 C.3     276      M_A    0.0000
   1509 H          82.9036   27.5188   18.8923 H       276      M_A    0.0000
   1510 H          84.3619   28.1632   18.5004 H       276      M_A    0.0000
   1511 H          85.1122   26.3024   17.6747 H       276      M_A    0.0000
   1512 H          84.3758   25.3811   18.8168 H       276      M_A    0.0000
   1513 C          83.1863   25.8173   17.2217 C.3     277      M_A    0.0000
   1514 C          83.3413   26.5002   15.9754 C.3     277      M_A    0.0000
   1515 H          83.2035   24.8053   17.0718 H       277      M_A    0.0000
   1516 H          82.2753   26.0382   17.6319 H       277      M_A    0.0000
   1517 H          83.9273   27.3297   16.1004 H       277      M_A    0.0000
   1518 H          83.8237   25.8983   15.3031 H       277      M_A    0.0000
   1519 C          82.0590   26.9106   15.4052 C.3     278      M_A    0.0000
   1520 C          82.1329   27.1070   13.9911 C.3     278      M_A    0.0000
   1521 H          81.3576   26.1986   15.6244 H       278      M_A    0.0000
   1522 H          81.7551   27.7734   15.8638 H       278      M_A    0.0000
   1523 H          83.0297   27.5323   13.7423 H       278      M_A    0.0000
   1524 H          82.0917   26.2053   13.5091 H       278      M_A    0.0000
   1525 C          81.0533   27.9577   13.4926 C.3     279      M_A    0.0000
   1526 C          79.8946   27.2044   13.1272 C.3     279      M_A    0.0000
   1527 H          80.8134   28.6427   14.2139 H       279      M_A    0.0000
   1528 H          81.3960   28.4873   12.6868 H       279      M_A    0.0000
   1529 H          79.9335   26.9603   12.1342 H       279      M_A    0.0000
   1530 H          79.8715   26.3226   13.6458 H       279      M_A    0.0000
   1531 C          78.6546   27.9352   13.3846 C.3     280      M_A    0.0000
   1532 C          77.8532   27.3061   14.3874 C.3     280      M_A    0.0000
   1533 H          78.8876   28.8900   13.6696 H       280      M_A    0.0000
   1534 H          78.1281   28.0097   12.5104 H       280      M_A    0.0000
   1535 H          77.0754   27.9173   14.6494 H       280      M_A    0.0000
   1536 H          77.4396   26.4463   14.0177 H       280      M_A    0.0000
   1537 C          78.6221   26.9809   15.5879 C.3     281      M_A    0.0000
   1538 C          77.8853   26.1601   16.4973 C.3     281      M_A    0.0000
   1539 H          79.4853   26.5077   15.3085 H       281      M_A    0.0000
   1540 H          78.9000   27.8518   16.0475 H       281      M_A    0.0000
   1541 H          78.0415   26.4740   17.4586 H       281      M_A    0.0000
   1542 H          76.8820   26.2508   16.3179 H       281      M_A    0.0000
   1543 C          78.2566   24.7495   16.3960 C.3     282      M_A    0.0000
   1544 C          78.2072   24.0841   17.6603 C.3     282      M_A    0.0000
   1545 H          77.6275   24.2897   15.7327 H       282      M_A    0.0000
   1546 H          79.1985   24.6838   16.0015 H       282      M_A    0.0000
   1547 H          79.0919   24.2112   18.1585 H       282      M_A    0.0000
   1548 H          77.4778   24.4981   18.2464 H       282      M_A    0.0000
   1549 C          77.9451   22.6521   17.5230 C.3     283      M_A    0.0000
   1550 C          76.6379   22.2946   17.9778 C.3     283      M_A    0.0000
   1551 H          78.0592   22.3886   16.5409 H       283      M_A    0.0000
   1552 H          78.6536   22.1352   18.0501 H       283      M_A    0.0000
   1553 H          76.6587   21.3685   18.4125 H       283      M_A    0.0000
   1554 H          76.3255   22.9505   18.6984 H       283      M_A    0.0000
   1555 C          75.6574   22.2840   16.8931 C.3     284      M_A    0.0000
   1556 C          74.8264   23.4472   16.9026 C.3     284      M_A    0.0000
   1557 H          76.1534   22.2145   16.0008 H       284      M_A    0.0000
   1558 H          75.0826   21.4415   16.9762 H       284      M_A    0.0000
   1559 H          73.9435   23.2437   17.3780 H       284      M_A    0.0000
   1560 H          75.2789   24.1973   17.4315 H       284      M_A    0.0000
   1561 C          74.5349   23.9310   15.5539 C.3     285      M_A    0.0000
   1562 C          73.7994   25.1568   15.5652 C.3     285      M_A    0.0000
   1563 H          75.4170   24.0557   15.0504 H       285      M_A    0.0000
   1564 H          74.0092   23.2110   15.0517 H       285      M_A    0.0000
   1565 H          72.7974   24.9640   15.6417 H       285      M_A    0.0000
   1566 H          74.0553   25.7119   16.3859 H       285      M_A    0.0000
   1567 C          74.0354   25.9557   14.3636 C.3     286      M_A    0.0000
   1568 C          73.2178   25.5396   13.2672 C.3     286      M_A    0.0000
   1569 H          73.8564   26.9394   14.5812 H       286      M_A    0.0000
   1570 H          75.0243   25.8860   14.1101 H       286      M_A    0.0000
   1571 H          72.8866   24.5835   13.4195 H       286      M_A    0.0000
   1572 H          72.3860   26.1323   13.2050 H       286      M_A    0.0000
   1573 C          73.9313   25.5937   11.9921 C.3     287      M_A    0.0000
   1574 C          73.0437   25.7317   10.8800 C.3     287      M_A    0.0000
   1575 H          74.5892   26.3771   12.0152 H       287      M_A    0.0000
   1576 H          74.4909   24.7430   11.8909 H       287      M_A    0.0000
   1577 H          72.1775   25.2163   11.0563 H       287      M_A    0.0000
   1578 H          72.7821   26.7136   10.7597 H       287      M_A    0.0000
   1579 C          73.6361   25.2458    9.6346 C.3     288      M_A    0.0000
   1580 C          74.4818   26.2209    9.0203 C.3     288      M_A    0.0000
   1581 H          74.1683   24.3946    9.8326 H       288      M_A    0.0000
   1582 H          72.8842   24.9797    8.9936 H       288      M_A    0.0000
   1583 H          74.3219   26.2373    8.0097 H       288      M_A    0.0000
   1584 H          74.2516   27.1549    9.3693 H       288      M_A    0.0000
   1585 C          75.8990   25.9609    9.2691 C.3     289      M_A    0.0000
   1586 C          76.6777   26.0124    8.0713 C.2     289      M_A    0.0000
   1587 H          76.2469   26.6474    9.9435 H       289      M_A    0.0000
   1588 H          75.9934   25.0422    9.7097 H       289      M_A    0.0000
   1589 H          76.3298   25.3259    7.3969 H       289      M_A    0.0000
   1590 H          76.5833   26.9311    7.6307 H       289      M_A    0.0000
   1591 C          72.1208   43.3218   23.3929 C.2     290      M_A    0.0000
   1592 C          71.0688   44.2907   22.8418 C.3     290      M_A    0.0000
   1593 H          72.5862   43.7437   24.2923 H       290      M_A    0.0000
   1594 H          72.9240   43.1813   22.6589 H       290      M_A    0.0000
   1595 H          70.2595   43.7310   22.3567 H       290      M_A    0.0000
   1596 H          70.6121   44.8569   23.6629 H       290      M_A    0.0000
   1597 C          71.6752   45.3007   21.8075 C.3     291      M_A    0.0000
   1598 C          72.9093   45.6507   22.1531 C.3     291      M_A    0.0000
   1599 H          71.6842   44.8668   20.9614 H       291      M_A    0.0000
   1600 H          71.1315   46.0749   21.7116 H       291      M_A    0.0000
   1601 H          73.0382   46.5809   22.0041 H       291      M_A    0.0000
   1602 H          73.0421   45.5021   23.0829 H       291      M_A    0.0000
   1603 C          73.8532   44.9612   21.4603 C.3     292      M_A    0.0000
   1604 C          75.0834   45.3872   21.7249 C.3     292      M_A    0.0000
   1605 H          73.7754   44.0375   21.6723 H       292      M_A    0.0000
   1606 H          73.6725   45.0441   20.5304 H       292      M_A    0.0000
   1607 H          75.1819   46.2916   21.4482 H       292      M_A    0.0000
   1608 H          75.2397   45.3701   22.6628 H       292      M_A    0.0000
   1609 C          76.0326   44.6348   21.1090 C.3     293      M_A    0.0000
   1610 C          77.2019   44.6860   21.7375 C.3     293      M_A    0.0000
   1611 H          75.7274   43.7355   21.0609 H       293      M_A    0.0000
   1612 H          76.1304   44.9383   20.2131 H       293      M_A    0.0000
   1613 H          77.1982   44.0941   22.4817 H       293      M_A    0.0000
   1614 H          77.8965   44.3923   21.1584 H       293      M_A    0.0000
   1615 C          77.4968   45.9381   22.1753 C.3     294      M_A    0.0000
   1616 C          78.7971   46.1024   22.3921 C.3     294      M_A    0.0000
   1617 H          77.1915   46.5678   21.5315 H       294      M_A    0.0000
   1618 H          77.0092   46.1062   22.9742 H       294      M_A    0.0000
   1619 H          78.9516   46.9283   22.8376 H       294      M_A    0.0000
   1620 H          79.1210   45.4175   22.9668 H       294      M_A    0.0000
   1621 C          79.5176   46.0847   21.2402 C.3     295      M_A    0.0000
   1622 C          80.8248   46.0114   21.4650 C.3     295      M_A    0.0000
   1623 H          79.2353   45.3449   20.7135 H       295      M_A    0.0000
   1624 H          79.3161   46.8683   20.7406 H       295      M_A    0.0000
   1625 H          81.2897   46.5998   20.8803 H       295      M_A    0.0000
   1626 H          81.0198   46.2965   22.3510 H       295      M_A    0.0000
   1627 C          81.3070   44.7526   21.2938 C.3     296      M_A    0.0000
   1628 C          82.6217   44.6883   21.4735 C.3     296      M_A    0.0000
   1629 H          80.8659   44.1700   21.9023 H       296      M_A    0.0000
   1630 H          81.0825   44.4547   20.4191 H       296      M_A    0.0000
   1631 H          83.0620   45.2825   20.8757 H       296      M_A    0.0000
   1632 H          82.8448   44.9714   22.3535 H       296      M_A    0.0000
   1633 C          83.1071   43.4338   21.2808 C.3     297      M_A    0.0000
   1634 C          84.0740   43.1306   22.1399 C.3     297      M_A    0.0000
   1635 H          82.3918   42.8126   21.3623 H       297      M_A    0.0000
   1636 H          83.4295   43.3636   20.3890 H       297      M_A    0.0000
   1637 H          84.8299   43.6877   21.9900 H       297      M_A    0.0000
   1638 H          83.7837   43.2978   23.0299 H       297      M_A    0.0000
   1639 C          84.4609   41.8317   22.0423 C.3     298      M_A    0.0000
   1640 C          85.2619   41.4687   23.0380 C.3     298      M_A    0.0000
   1641 H          83.6857   41.2810   22.0301 H       298      M_A    0.0000
   1642 H          84.8994   41.7044   21.2081 H       298      M_A    0.0000
   1643 H          85.8619   42.1759   23.2481 H       298      M_A    0.0000
   1644 H          84.7514   41.3015   23.8227 H       298      M_A    0.0000
   1645 C          85.9831   40.3565   22.7395 C.3     299      M_A    0.0000
   1646 C          86.6827   39.9159   23.7794 C.3     299      M_A    0.0000
   1647 H          85.3896   39.6788   22.4352 H       299      M_A    0.0000
   1648 H          86.5660   40.5546   22.0148 H       299      M_A    0.0000
   1649 H          87.5547   39.6590   23.5005 H       299      M_A    0.0000
   1650 H          86.7942   40.6132   24.4164 H       299      M_A    0.0000
   1651 C          86.0880   38.8570   24.3887 C.3     300      M_A    0.0000
   1652 C          86.8377   38.3492   25.3608 C.3     300      M_A    0.0000
   1653 H          85.2480   39.1356   24.7366 H       300      M_A    0.0000
   1654 H          85.9055   38.1904   23.7356 H       300      M_A    0.0000
   1655 H          87.7512   38.3390   25.0965 H       300      M_A    0.0000
   1656 H          86.7836   38.8984   26.1351 H       300      M_A    0.0000
   1657 C          86.4638   37.0857   25.6929 C.3     301      M_A    0.0000
   1658 C          86.4983   36.8789   27.0047 C.3     301      M_A    0.0000
   1659 H          85.5867   36.9284   25.3610 H       301      M_A    0.0000
   1660 H          87.0378   36.4700   25.2505 H       301      M_A    0.0000
   1661 H          87.3996   36.8123   27.3007 H       301      M_A    0.0000
   1662 H          86.1148   37.6194   27.4618 H       301      M_A    0.0000
   1663 C          85.8343   35.7497   27.3657 C.3     302      M_A    0.0000
   1664 C          84.7262   36.0140   28.0493 C.3     302      M_A    0.0000
   1665 H          85.6234   35.2543   26.5819 H       302      M_A    0.0000
   1666 H          86.4156   35.2050   27.8849 H       302      M_A    0.0000
   1667 H          84.9010   35.9703   28.9830 H       302      M_A    0.0000
   1668 H          84.4345   36.9006   27.8673 H       302      M_A    0.0000
   1669 C          83.7193   35.1517   27.7514 C.3     303      M_A    0.0000
   1670 C          83.3989   34.3765   28.7816 C.3     303      M_A    0.0000
   1671 H          82.9605   35.6516   27.4711 H       303      M_A    0.0000
   1672 H          83.9828   34.6169   27.0105 H       303      M_A    0.0000
   1673 H          83.8394   34.6803   29.5677 H       303      M_A    0.0000
   1674 H          82.4652   34.4317   28.9532 H       303      M_A    0.0000
   1675 C          83.7291   33.0756   28.5695 C.3     304      M_A    0.0000
   1676 C          83.0527   32.2492   29.3598 C.3     304      M_A    0.0000
   1677 H          83.5646   32.8624   27.6576 H       304      M_A    0.0000
   1678 H          84.6635   32.9697   28.7105 H       304      M_A    0.0000
   1679 H          82.8589   32.6752   30.1875 H       304      M_A    0.0000
   1680 H          82.2166   32.0301   28.9631 H       304      M_A    0.0000
   1681 C          83.7345   31.1002   29.6075 C.3     305      M_A    0.0000
   1682 C          83.4091   30.1292   28.7613 C.3     305      M_A    0.0000
   1683 H          84.6668   31.2797   29.5550 H       305      M_A    0.0000
   1684 H          83.5590   30.8264   30.5011 H       305      M_A    0.0000
   1685 H          82.7549   29.5610   29.1530 H       305      M_A    0.0000
   1686 H          83.0165   30.4978   27.9775 H       305      M_A    0.0000
   1687 C          84.4829   29.3782   28.4017 C.3     306      M_A    0.0000
   1688 C          84.6654   29.3582   27.0860 C.3     306      M_A    0.0000
   1689 H          85.2568   29.7237   28.8330 H       306      M_A    0.0000
   1690 H          84.3609   28.4932   28.7275 H       306      M_A    0.0000
   1691 H          85.4667   28.8918   26.8750 H       306      M_A    0.0000
   1692 H          83.9555   28.8853   26.6655 H       306      M_A    0.0000
   1693 C          84.7335   30.6077   26.5564 C.3     307      M_A    0.0000
   1694 C          85.3758   30.6274   25.3937 C.2     307      M_A    0.0000
   1695 H          83.8503   30.9426   26.4467 H       307      M_A    0.0000
   1696 H          85.1676   31.1810   27.1785 H       307      M_A    0.0000
   1697 H          86.2590   30.2924   25.5034 H       307      M_A    0.0000
   1698 H          84.9416   30.0541   24.7715 H       307      M_A    0.0000
   1699 C          52.9556   46.8000   21.2862 C.2     308      M_A    0.0000
   1700 C          52.6661   46.2789   22.6982 C.3     308      M_A    0.0000
   1701 H          52.9930   45.9639   20.5770 H       308      M_A    0.0000
   1702 H          53.9409   47.2816   21.2577 H       308      M_A    0.0000
   1703 H          52.6778   46.9769   23.3387 H       308      M_A    0.0000
   1704 H          51.8282   45.8451   22.7838 H       308      M_A    0.0000
   1705 C          53.6473   45.3955   22.9974 C.3     309      M_A    0.0000
   1706 C          54.6231   45.4078   22.1033 C.3     309      M_A    0.0000
   1707 H          53.9911   45.6003   23.8562 H       309      M_A    0.0000
   1708 H          53.2703   44.5283   23.0550 H       309      M_A    0.0000
   1709 H          54.2739   45.2382   21.2390 H       309      M_A    0.0000
   1710 H          55.0237   46.2657   22.0713 H       309      M_A    0.0000
   1711 C          55.5798   44.4893   22.3753 C.3     310      M_A    0.0000
   1712 C          56.6897   44.7021   21.6863 C.3     310      M_A    0.0000
   1713 H          55.7654   44.5077   23.3041 H       310      M_A    0.0000
   1714 H          55.2385   43.6267   22.1830 H       310      M_A    0.0000
   1715 H          56.5168   44.6207   20.7584 H       310      M_A    0.0000
   1716 H          56.9962   45.5871   21.8294 H       310      M_A    0.0000
   1717 C          57.6764   43.8387   22.0236 C.3     311      M_A    0.0000
   1718 C          58.8516   44.2052   21.5373 C.3     311      M_A    0.0000
   1719 H          57.7201   43.7788   22.9681 H       311      M_A    0.0000
   1720 H          57.4485   42.9756   21.7066 H       311      M_A    0.0000
   1721 H          58.7601   44.4714   20.6327 H       311      M_A    0.0000
   1722 H          59.1786   44.9579   22.0106 H       311      M_A    0.0000
   1723 C          59.7689   43.2122   21.6093 C.3     312      M_A    0.0000
   1724 C          60.8172   43.4405   20.8342 C.3     312      M_A    0.0000
   1725 H          60.0457   43.1168   22.5103 H       312      M_A    0.0000
   1726 H          59.3552   42.3959   21.3640 H       312      M_A    0.0000
   1727 H          60.5340   43.6082   19.9458 H       312      M_A    0.0000
   1728 H          61.2734   44.2180   21.1256 H       312      M_A    0.0000
   1729 C          61.6856   42.4020   20.8267 C.3     313      M_A    0.0000
   1730 C          62.8511   42.7266   20.2899 C.3     313      M_A    0.0000
   1731 H          61.8102   42.1017   21.7166 H       313      M_A    0.0000
   1732 H          61.2969   41.6823   20.3486 H       313      M_A    0.0000
   1733 H          63.4365   41.9819   20.3097 H       313      M_A    0.0000
   1734 H          62.7358   42.9578   19.3784 H       313      M_A    0.0000
   1735 C          63.4408   43.7625   20.9316 C.3     314      M_A    0.0000
   1736 C          64.3244   44.3871   20.1694 C.3     314      M_A    0.0000
   1737 H          62.7697   44.3685   21.2144 H       314      M_A    0.0000
   1738 H          63.8610   43.4366   21.7157 H       314      M_A    0.0000
   1739 H          64.9282   43.7618   19.7927 H       314      M_A    0.0000
   1740 H          63.8858   44.8121   19.4451 H       314      M_A    0.0000
   1741 C          65.0302   45.3152   20.8573 C.3     315      M_A    0.0000
   1742 C          64.8857   46.5305   20.3532 C.3     315      M_A    0.0000
   1743 H          64.7496   45.3034   21.7622 H       315      M_A    0.0000
   1744 H          65.9449   45.0684   20.8529 H       315      M_A    0.0000
   1745 H          64.5586   46.4772   19.4657 H       315      M_A    0.0000
   1746 H          64.2418   47.0146   20.8518 H       315      M_A    0.0000
   1747 C          66.0473   47.2257   20.3492 C.3     316      M_A    0.0000
   1748 C          66.2786   47.8092   19.1839 C.3     316      M_A    0.0000
   1749 H          66.0164   47.8759   21.0376 H       316      M_A    0.0000
   1750 H          66.7570   46.6359   20.5637 H       316      M_A    0.0000
   1751 H          65.6120   48.4590   19.0079 H       316      M_A    0.0000
   1752 H          67.1066   48.2689   19.2095 H       316      M_A    0.0000
   1753 C          66.3036   46.9218   18.1618 C.3     317      M_A    0.0000
   1754 C          67.5248   46.7403   17.6849 C.3     317      M_A    0.0000
   1755 H          65.9470   46.0978   18.4641 H       317      M_A    0.0000
   1756 H          65.7292   47.2311   17.4748 H       317      M_A    0.0000
   1757 H          67.4950   46.1830   16.9192 H       317      M_A    0.0000
   1758 H          67.8906   47.5681   17.4048 H       317      M_A    0.0000
   1759 C          68.3546   46.1832   18.5980 C.3     318      M_A    0.0000
   1760 C          69.2049   45.3304   18.0487 C.3     318      M_A    0.0000
   1761 H          68.8280   46.8735   19.0418 H       318      M_A    0.0000
   1762 H          67.8336   45.7440   19.2562 H       318      M_A    0.0000
   1763 H          68.8166   44.9335   17.2811 H       318      M_A    0.0000
   1764 H          69.9805   45.7885   17.7553 H       318      M_A    0.0000
   1765 C          69.5752   44.3507   18.9066 C.3     319      M_A    0.0000
   1766 C          70.7428   44.5994   19.4782 C.3     319      M_A    0.0000
   1767 H          68.9037   44.2541   19.5679 H       319      M_A    0.0000
   1768 H          69.6126   43.5299   18.4349 H       319      M_A    0.0000
   1769 H          71.3397   44.9771   18.8468 H       319      M_A    0.0000
   1770 H          70.6366   45.2392   20.1688 H       319      M_A    0.0000
   1771 C          71.3068   43.4845   19.9992 C.3     320      M_A    0.0000
   1772 C          71.2554   43.4674   21.3217 C.2     320      M_A    0.0000
   1773 H          70.8634   42.7248   19.6471 H       320      M_A    0.0000
   1774 H          72.2070   43.4331   19.7084 H       320      M_A    0.0000
   1775 H          71.6988   44.2270   21.6738 H       320      M_A    0.0000
   1776 H          70.3552   43.5187   21.6125 H       320      M_A    0.0000
   1777 C          41.3069   42.9169    7.6456 C.2     321      M_A    0.0000
   1778 C          40.7544   43.3347    8.4996 C.3     321      M_A    0.0000
   1779 H          41.5382   42.1822    7.8072 H       321      M_A    0.0000
   1780 H          41.9602   43.3361    7.5157 H       321      M_A    0.0000
   1781 H          40.6659   44.1115    8.4097 H       321      M_A    0.0000
   1782 H          40.0308   43.0267    8.5296 H       321      M_A    0.0000
   1783 C          41.2722   43.1398    9.4787 C.3     322      M_A    0.0000
   1784 C          42.3225   42.8438    9.3430 C.3     322      M_A    0.0000
   1785 H          41.2299   43.7889    9.9217 H       322      M_A    0.0000
   1786 H          40.8809   42.5766    9.8649 H       322      M_A    0.0000
   1787 H          42.3634   42.1784    8.9247 H       322      M_A    0.0000
   1788 H          42.7067   43.3936    8.9312 H       322      M_A    0.0000
   1789 C          42.8517   42.6890   10.3231 C.3     323      M_A    0.0000
   1790 C          43.9434   42.6362   10.2034 C.3     323      M_A    0.0000
   1791 H          42.6618   43.2777   10.8097 H       323      M_A    0.0000
   1792 H          42.5842   42.0270   10.6541 H       323      M_A    0.0000
   1793 H          44.1323   42.0595    9.7023 H       323      M_A    0.0000
   1794 H          44.2132   43.3056    9.8896 H       323      M_A    0.0000
   1795 C          44.4710   42.4551   11.1799 C.3     324      M_A    0.0000
   1796 C          45.4232   43.0008   11.2466 C.3     324      M_A    0.0000
   1797 H          43.9952   42.6698   11.7689 H       324      M_A    0.0000
   1798 H          44.5965   41.6824   11.2610 H       324      M_A    0.0000
   1799 H          46.0201   42.5271   11.0496 H       324      M_A    0.0000
   1800 H          45.4290   43.5972   10.7330 H       324      M_A    0.0000
   1801 C          45.6094   43.4087   12.2779 C.3     325      M_A    0.0000
   1802 C          46.5193   42.9917   12.7330 C.3     325      M_A    0.0000
   1803 H          45.6643   44.1926   12.2346 H       325      M_A    0.0000
   1804 H          44.9848   43.2505   12.7299 H       325      M_A    0.0000
   1805 H          46.5898   42.2304   12.5464 H       325      M_A    0.0000
   1806 H          47.1557   43.3547   12.4453 H       325      M_A    0.0000
   1807 C          46.5202   43.0920   13.8531 C.3     326      M_A    0.0000
   1808 C          46.5089   42.1158   14.3589 C.3     326      M_A    0.0000
   1809 H          47.1562   43.5013   14.0706 H       326      M_A    0.0000
   1810 H          45.8935   43.5158   14.0703 H       326      M_A    0.0000
   1811 H          46.2237   41.5645   13.8751 H       326      M_A    0.0000
   1812 H          47.2427   41.8982   14.5420 H       326      M_A    0.0000
   1813 C          45.8899   42.1294   15.2978 C.3     327      M_A    0.0000
   1814 C          46.4819   42.4025   16.1832 C.3     327      M_A    0.0000
   1815 H          45.2962   42.6373   15.2029 H       327      M_A    0.0000
   1816 H          45.5659   41.4193   15.3983 H       327      M_A    0.0000
   1817 H          46.9609   41.8101   16.3808 H       327      M_A    0.0000
   1818 H          46.9416   43.0203   16.0205 H       327      M_A    0.0000
   1819 C          45.8344   42.6554   17.0673 C.3     328      M_A    0.0000
   1820 C          46.2087   43.5279   17.6219 C.3     328      M_A    0.0000
   1821 H          45.1014   42.7904   16.8146 H       328      M_A    0.0000
   1822 H          45.7979   42.0290   17.5424 H       328      M_A    0.0000
   1823 H          45.7409   43.6779   18.2367 H       328      M_A    0.0000
   1824 H          46.9236   43.3758   17.9138 H       328      M_A    0.0000
   1825 C          46.2682   44.4484   16.9785 C.3     329      M_A    0.0000
   1826 C          46.7202   45.2990   17.5089 C.3     329      M_A    0.0000
   1827 H          46.6858   44.2802   16.3330 H       329      M_A    0.0000
   1828 H          45.5432   44.6359   16.7363 H       329      M_A    0.0000
   1829 H          46.5492   45.9709   17.1364 H       329      M_A    0.0000
   1830 H          46.4163   45.3581   18.2325 H       329      M_A    0.0000
   1831 C          47.8377   45.2045   17.5916 C.3     330      M_A    0.0000
   1832 C          48.2944   46.0759   18.0826 C.3     330      M_A    0.0000
   1833 H          48.0079   44.5490   17.9924 H       330      M_A    0.0000
   1834 H          48.1387   45.1129   16.8702 H       330      M_A    0.0000
   1835 H          47.9797   46.7400   17.8009 H       330      M_A    0.0000
   1836 H          48.1402   46.0624   18.8543 H       330      M_A    0.0000
   1837 C          49.4088   46.1122   17.9362 C.3     331      M_A    0.0000
   1838 C          49.9580   45.9393   18.8729 C.3     331      M_A    0.0000
   1839 H          49.6120   45.5725   17.4006 H       331      M_A    0.0000
   1840 H          49.6024   46.8132   17.6354 H       331      M_A    0.0000
   1841 H          50.4273   46.5518   19.0276 H       331      M_A    0.0000
   1842 H          49.4540   45.8830   19.4748 H       331      M_A    0.0000
   1843 C          50.5825   45.0047   18.8345 C.3     332      M_A    0.0000
   1844 C          51.6589   45.2200   18.8972 C.2     332      M_A    0.0000
   1845 H          50.3671   44.5313   19.4252 H       332      M_A    0.0000
   1846 H          50.4226   44.6201   18.1668 H       332      M_A    0.0000
   1847 H          51.8743   45.6935   18.3065 H       332      M_A    0.0000
   1848 H          51.8188   45.6047   19.5650 H       332      M_A    0.0000
   1849 C          67.0509   22.5953   26.6612 C.2     333      M_A    0.0000
   1850 C          66.4869   23.7637   26.2986 C.3     333      M_A    0.0000
   1851 H          67.5964   22.7210   27.4464 H       333      M_A    0.0000
   1852 H          67.6379   22.2809   25.9637 H       333      M_A    0.0000
   1853 H          65.8486   23.6172   25.5909 H       333      M_A    0.0000
   1854 H          65.9973   24.1387   27.0399 H       333      M_A    0.0000
   1855 C          67.4198   24.6837   25.8718 C.3     334      M_A    0.0000
   1856 C          68.6704   24.3560   26.2508 C.3     334      M_A    0.0000
   1857 H          67.3725   24.7514   24.9111 H       334      M_A    0.0000
   1858 H          67.1845   25.5506   26.2225 H       334      M_A    0.0000
   1859 H          68.6487   23.8895   27.0944 H       334      M_A    0.0000
   1860 H          69.0624   23.7514   25.6100 H       334      M_A    0.0000
   1861 C          69.4847   25.4606   26.3750 C.3     335      M_A    0.0000
   1862 C          70.3084   25.3709   27.4372 C.3     335      M_A    0.0000
   1863 H          69.9989   25.5603   25.5653 H       335      M_A    0.0000
   1864 H          68.9321   26.2473   26.4506 H       335      M_A    0.0000
   1865 H          69.7945   25.3418   28.2526 H       335      M_A    0.0000
   1866 H          70.8111   24.5490   27.3973 H       335      M_A    0.0000
   1867 C          71.1899   26.4278   27.5052 C.3     336      M_A    0.0000
   1868 C          71.3327   26.8936   28.7613 C.3     336      M_A    0.0000
   1869 H          72.0438   26.1431   27.1591 H       336      M_A    0.0000
   1870 H          70.8767   27.1316   26.9252 H       336      M_A    0.0000
   1871 H          70.4734   26.9398   29.1964 H       336      M_A    0.0000
   1872 H          71.8733   26.2862   29.2797 H       336      M_A    0.0000
   1873 C          71.9139   28.1425   28.7922 C.3     337      M_A    0.0000
   1874 C          73.1831   28.1040   29.2424 C.3     337      M_A    0.0000
   1875 H          71.8891   28.5189   27.9048 H       337      M_A    0.0000
   1876 H          71.3817   28.7192   29.3526 H       337      M_A    0.0000
   1877 H          73.1926   28.1198   30.2065 H       337      M_A    0.0000
   1878 H          73.6039   27.2786   28.9748 H       337      M_A    0.0000
   1879 C          73.9357   29.1586   28.7734 C.3     338      M_A    0.0000
   1880 C          75.2294   28.8252   28.5995 C.3     338      M_A    0.0000
   1881 H          73.5581   29.4638   27.9403 H       338      M_A    0.0000
   1882 H          73.8641   29.8923   29.3951 H       338      M_A    0.0000
   1883 H          75.7443   29.0836   29.3728 H       338      M_A    0.0000
   1884 H          75.3159   27.8684   28.5163 H       338      M_A    0.0000
   1885 C          75.7762   29.4194   27.4830 C.3     339      M_A    0.0000
   1886 C          76.3201   28.5197   26.6405 C.3     339      M_A    0.0000
   1887 H          75.0892   29.9226   27.0307 H       339      M_A    0.0000
   1888 H          76.4447   30.0546   27.7649 H       339      M_A    0.0000
   1889 H          75.7068   27.7899   26.4952 H       339      M_A    0.0000
   1890 H          76.4769   28.9253   25.7798 H       339      M_A    0.0000
   1891 C          77.5098   28.0121   27.1156 C.3     340      M_A    0.0000
   1892 C          77.9134   26.9272   26.4265 C.3     340      M_A    0.0000
   1893 H          78.1823   28.7018   27.0700 H       340      M_A    0.0000
   1894 H          77.4031   27.7907   28.0480 H       340      M_A    0.0000
   1895 H          77.5512   26.1279   26.8263 H       340      M_A    0.0000
   1896 H          77.5746   26.9635   25.5244 H       340      M_A    0.0000
   1897 C          79.2863   26.8182   26.3812 C.3     341      M_A    0.0000
   1898 C          79.8171   26.5471   27.5893 C.3     341      M_A    0.0000
   1899 H          79.5226   26.1255   25.7532 H       341      M_A    0.0000
   1900 H          79.6522   27.6411   26.0363 H       341      M_A    0.0000
   1901 H          79.2207   25.9811   28.0931 H       341      M_A    0.0000
   1902 H          80.6417   26.0580   27.4860 H       341      M_A    0.0000
   1903 C          80.0667   27.6895   28.3183 C.3     342      M_A    0.0000
   1904 C          79.9636   27.4811   29.6453 C.3     342      M_A    0.0000
   1905 H          80.9501   28.0097   28.1015 H       342      M_A    0.0000
   1906 H          79.4480   28.3757   28.0423 H       342      M_A    0.0000
   1907 H          79.2165   26.9006   29.8317 H       342      M_A    0.0000
   1908 H          80.7518   27.0315   29.9716 H       342      M_A    0.0000
   1909 C          79.7995   28.6555   30.3471 C.3     343      M_A    0.0000
   1910 C          78.9017   28.5333   31.3441 C.3     343      M_A    0.0000
   1911 H          80.6537   28.9269   30.7029 H       343      M_A    0.0000
   1912 H          79.5220   29.3471   29.7351 H       343      M_A    0.0000
   1913 H          78.0947   28.1216   31.0136 H       343      M_A    0.0000
   1914 H          79.2477   27.9521   32.0313 H       343      M_A    0.0000
   1915 C          78.5810   29.7481   31.9098 C.3     344      M_A    0.0000
   1916 C          77.3774   30.1981   31.5049 C.3     344      M_A    0.0000
   1917 H          78.5941   29.6571   32.8697 H       344      M_A    0.0000
   1918 H          79.2664   30.3873   31.6828 H       344      M_A    0.0000
   1919 H          77.1218   29.7642   30.6826 H       344      M_A    0.0000
   1920 H          76.7039   29.9737   32.1574 H       344      M_A    0.0000
   1921 C          77.3688   31.5619   31.3087 C.3     345      M_A    0.0000
   1922 C          76.1702   32.0095   30.8867 C.3     345      M_A    0.0000
   1923 H          77.6118   31.9963   32.1346 H       345      M_A    0.0000
   1924 H          78.0511   31.7878   30.6658 H       345      M_A    0.0000
   1925 H          75.4629   31.5035   31.3035 H       345      M_A    0.0000
   1926 H          76.0477   32.9281   31.1533 H       345      M_A    0.0000
   1927 C          76.0322   31.9219   29.5185 C.3     346      M_A    0.0000
   1928 C          75.4970   33.0380   28.9868 C.3     346      M_A    0.0000
   1929 H          76.8979   31.7524   29.1290 H       346      M_A    0.0000
   1930 H          75.4806   31.1589   29.3100 H       346      M_A    0.0000
   1931 H          74.5479   32.9222   28.8613 H       346      M_A    0.0000
   1932 H          75.6076   33.7792   29.5936 H       346      M_A    0.0000
   1933 C          76.0683   33.3657   27.7765 C.3     347      M_A    0.0000
   1934 C          75.3237   32.9535   26.7322 C.3     347      M_A    0.0000
   1935 H          76.1901   34.3216   27.7390 H       347      M_A    0.0000
   1936 H          76.9476   32.9725   27.7313 H       347      M_A    0.0000
   1937 H          74.7915   32.1906   26.9862 H       347      M_A    0.0000
   1938 H          74.7066   33.6473   26.4718 H       347      M_A    0.0000
   1939 C          76.0955   32.6137   25.6424 C.3     348      M_A    0.0000
   1940 C          75.3494   32.3257   24.5583 C.3     348      M_A    0.0000
   1941 H          76.6953   33.3429   25.4468 H       348      M_A    0.0000
   1942 H          76.6461   31.8571   25.8753 H       348      M_A    0.0000
   1943 H          74.5196   31.9149   24.8276 H       348      M_A    0.0000
   1944 H          75.1180   33.1369   24.0911 H       348      M_A    0.0000
   1945 C          76.0004   31.4809   23.6857 C.3     349      M_A    0.0000
   1946 C          75.1740   30.5581   23.1563 C.3     349      M_A    0.0000
   1947 H          76.4010   32.0074   22.9841 H       349      M_A    0.0000
   1948 H          76.7235   31.0475   24.1540 H       349      M_A    0.0000
   1949 H          75.0819   29.8117   23.7599 H       349      M_A    0.0000
   1950 H          74.2924   30.9312   23.0407 H       349      M_A    0.0000
   1951 C          75.6223   30.0925   21.9394 C.3     350      M_A    0.0000
   1952 C          76.8707   29.5914   22.0129 C.3     350      M_A    0.0000
   1953 H          75.0128   29.4162   21.6217 H       350      M_A    0.0000
   1954 H          75.5928   30.8141   21.3004 H       350      M_A    0.0000
   1955 H          77.4796   30.1460   21.5113 H       350      M_A    0.0000
   1956 H          77.1772   29.6001   22.9271 H       350      M_A    0.0000
   1957 C          76.9452   28.3023   21.5318 C.3     351      M_A    0.0000
   1958 C          77.1562   27.4028   22.5122 C.3     351      M_A    0.0000
   1959 H          76.1266   28.0969   21.0652 H       351      M_A    0.0000
   1960 H          77.6547   28.2541   20.8805 H       351      M_A    0.0000
   1961 H          76.9018   27.7765   23.3641 H       351      M_A    0.0000
   1962 H          76.6014   26.6264   22.3737 H       351      M_A    0.0000
   1963 C          78.4728   27.0018   22.5785 C.3     352      M_A    0.0000
   1964 C          78.5956   25.6620   22.6468 C.3     352      M_A    0.0000
   1965 H          78.9393   27.3376   21.8042 H       352      M_A    0.0000
   1966 H          78.8840   27.4112   23.3487 H       352      M_A    0.0000
   1967 H          78.3768   25.3547   23.5343 H       352      M_A    0.0000
   1968 H          77.9695   25.2415   22.0459 H       352      M_A    0.0000
   1969 C          79.8679   25.2374   22.3309 C.3     353      M_A    0.0000
   1970 C          80.7101   25.3245   23.3788 C.3     353      M_A    0.0000
   1971 H          79.8228   24.3265   22.0178 H       353      M_A    0.0000
   1972 H          80.1987   25.7668   21.5960 H       353      M_A    0.0000
   1973 H          80.3155   24.9107   24.1553 H       353      M_A    0.0000
   1974 H          81.5231   24.8413   23.1906 H       353      M_A    0.0000
   1975 C          81.0296   26.6294   23.6849 C.3     354      M_A    0.0000
   1976 C          81.9861   26.7126   24.6300 C.3     354      M_A    0.0000
   1977 H          81.3199   27.0752   22.8806 H       354      M_A    0.0000
   1978 H          80.2320   27.0835   23.9808 H       354      M_A    0.0000
   1979 H          81.8439   27.4943   25.1764 H       354      M_A    0.0000
   1980 H          81.9364   25.9505   25.2187 H       354      M_A    0.0000
   1981 C          83.2516   26.7736   24.0883 C.3     355      M_A    0.0000
   1982 C          84.0326   27.6743   24.7156 C.3     355      M_A    0.0000
   1983 H          83.6527   25.8979   24.1361 H       355      M_A    0.0000
   1984 H          83.1788   26.9940   23.1524 H       355      M_A    0.0000
   1985 H          84.9563   27.5342   24.4769 H       355      M_A    0.0000
   1986 H          83.8047   28.5663   24.4287 H       355      M_A    0.0000
   1987 C          83.9128   27.6045   26.0866 C.3     356      M_A    0.0000
   1988 C          84.2693   28.7553   26.6895 C.2     356      M_A    0.0000
   1989 H          83.0005   27.3841   26.3080 H       356      M_A    0.0000
   1990 H          84.4592   26.8788   26.4098 H       356      M_A    0.0000
   1991 H          85.1816   28.9757   26.4681 H       356      M_A    0.0000
   1992 H          83.7228   29.4811   26.3663 H       356      M_A    0.0000
   1993 C          54.1405   27.5889   35.6507 C.2     357      M_A    0.0000
   1994 C          54.7342   28.6666   35.4122 C.3     357      M_A    0.0000
   1995 H          54.6082   27.1048   36.2438 H       357      M_A    0.0000
   1996 H          54.0847   27.0964   34.9030 H       357      M_A    0.0000
   1997 H          55.0601   28.6597   34.5764 H       357      M_A    0.0000
   1998 H          54.1575   29.3522   35.4582 H       357      M_A    0.0000
   1999 C          55.6979   28.8816   36.2297 C.3     358      M_A    0.0000
   2000 C          56.6103   28.0290   36.1232 C.3     358      M_A    0.0000
   2001 H          56.0257   29.7033   36.0806 H       358      M_A    0.0000
   2002 H          55.3731   28.8818   37.0660 H       358      M_A    0.0000
   2003 H          57.3215   28.2771   36.6105 H       358      M_A    0.0000
   2004 H          56.3350   27.2411   36.4520 H       358      M_A    0.0000
   2005 C          56.9803   27.8627   34.9072 C.3     359      M_A    0.0000
   2006 C          57.3859   26.6970   34.6893 C.3     359      M_A    0.0000
   2007 H          56.2908   28.0547   34.3663 H       359      M_A    0.0000
   2008 H          57.6281   28.4541   34.7186 H       359      M_A    0.0000
   2009 H          58.1975   26.5806   35.0534 H       359      M_A    0.0000
   2010 H          56.8400   26.1030   35.0816 H       359      M_A    0.0000
   2011 C          57.4530   26.4321   33.4369 C.3     360      M_A    0.0000
   2012 C          57.7720   25.2397   33.2200 C.3     360      M_A    0.0000
   2013 H          56.6587   26.6114   33.0604 H       360      M_A    0.0000
   2014 H          58.0490   26.9841   33.0561 H       360      M_A    0.0000
   2015 H          58.6559   25.1327   33.3304 H       360      M_A    0.0000
   2016 H          57.3711   24.7009   33.8148 H       360      M_A    0.0000
   2017 C          57.4542   24.8590   32.0379 C.3     361      M_A    0.0000
   2018 C          58.2479   24.0009   31.5857 C.3     361      M_A    0.0000
   2019 H          56.6205   24.5282   32.0549 H       361      M_A    0.0000
   2020 H          57.4361   25.5756   31.4984 H       361      M_A    0.0000
   2021 H          59.0833   24.3278   31.5790 H       361      M_A    0.0000
   2022 H          58.2579   23.2797   32.1193 H       361      M_A    0.0000
   2023 C          57.9391   23.6316   30.3977 C.3     362      M_A    0.0000
   2024 C          58.7530   22.8000   29.9320 C.3     362      M_A    0.0000
   2025 H          57.1136   23.2807   30.4093 H       362      M_A    0.0000
   2026 H          57.9036   24.3561   29.8697 H       362      M_A    0.0000
   2027 H          59.4785   23.2231   29.6165 H       362      M_A    0.0000
   2028 H          59.0374   22.2508   30.5819 H       362      M_A    0.0000
   2029 C          58.2429   22.0960   28.9899 C.3     363      M_A    0.0000
   2030 C          59.0861   21.3418   28.4507 C.3     363      M_A    0.0000
   2031 H          57.5664   21.6113   29.3250 H       363      M_A    0.0000
   2032 H          57.8868   22.6467   28.3778 H       363      M_A    0.0000
   2033 H          58.6728   20.7475   27.9207 H       363      M_A    0.0000
   2034 H          59.6338   21.8191   27.9244 H       363      M_A    0.0000
   2035 C          59.7912   20.7066   29.3125 C.3     364      M_A    0.0000
   2036 C          60.8890   20.3275   28.8415 C.3     364      M_A    0.0000
   2037 H          59.9280   21.2379   30.0223 H       364      M_A    0.0000
   2038 H          59.3221   20.0004   29.6059 H       364      M_A    0.0000
   2039 H          60.7566   19.6785   28.2364 H       364      M_A    0.0000
   2040 H          61.2887   21.0047   28.4095 H       364      M_A    0.0000
   2041 C          61.6822   19.8908   29.7489 C.3     365      M_A    0.0000
   2042 C          62.8259   19.6421   29.3006 C.3     365      M_A    0.0000
   2043 H          61.7349   20.5006   30.4048 H       365      M_A    0.0000
   2044 H          61.3268   19.1516   30.1123 H       365      M_A    0.0000
   2045 H          63.3702   19.3913   29.9682 H       365      M_A    0.0000
   2046 H          62.7882   18.9537   28.7265 H       365      M_A    0.0000
   2047 C          63.3432   20.6510   28.7025 C.3     366      M_A    0.0000
   2048 C          64.1885   21.2428   29.4139 C.3     366      M_A    0.0000
   2049 H          63.7247   20.3710   27.9403 H       366      M_A    0.0000
   2050 H          62.6871   21.2168   28.4696 H       366      M_A    0.0000
   2051 H          63.8318   21.9908   29.7575 H       366      M_A    0.0000
   2052 H          64.4216   20.7257   30.1090 H       366      M_A    0.0000
   2053 C          65.2448   21.5527   28.7570 C.3     367      M_A    0.0000
   2054 C          66.2906   21.1654   29.3289 C.3     367      M_A    0.0000
   2055 H          65.1913   21.1929   27.9370 H       367      M_A    0.0000
   2056 H          65.2660   22.4428   28.6468 H       367      M_A    0.0000
   2057 H          66.4479   21.6676   30.0555 H       367      M_A    0.0000
   2058 H          66.1897   20.3215   29.6160 H       367      M_A    0.0000
   2059 C          67.3142   21.2205   28.5591 C.3     368      M_A    0.0000
   2060 C          67.8405   20.0960   28.3876 C.3     368      M_A    0.0000
   2061 H          67.0643   21.5667   27.7702 H       368      M_A    0.0000
   2062 H          67.9114   21.7890   28.9125 H       368      M_A    0.0000
   2063 H          68.6638   20.1909   28.0442 H       368      M_A    0.0000
   2064 H          67.9367   19.6780   29.1756 H       368      M_A    0.0000
   2065 C          67.1501   19.3506   27.6060 C.3     369      M_A    0.0000
   2066 C          67.8561   18.7990   26.7295 C.2     369      M_A    0.0000
   2067 H          66.7281   18.7295   28.0968 H       369      M_A    0.0000
   2068 H          66.5130   19.8495   27.2187 H       369      M_A    0.0000
   2069 H          68.2781   19.4201   26.2387 H       369      M_A    0.0000
   2070 H          68.4932   18.3001   27.1168 H       369      M_A    0.0000
   2071 C          50.4737   44.1496   41.6391 C.2     370      M_A    0.0000
   2072 C          51.1472   44.3135   40.4602 C.3     370      M_A    0.0000
   2073 H          50.9006   43.4505   42.1751 H       370      M_A    0.0000
   2074 H          49.5584   43.8500   41.4640 H       370      M_A    0.0000
   2075 H          51.9656   44.8292   40.6100 H       370      M_A    0.0000
   2076 H          51.4239   43.4431   40.1078 H       370      M_A    0.0000
   2077 C          50.3738   44.9658   39.4941 C.3     371      M_A    0.0000
   2078 C          49.7993   44.0915   38.6132 C.3     371      M_A    0.0000
   2079 H          49.6817   45.4906   39.9457 H       371      M_A    0.0000
   2080 H          50.9408   45.6027   39.0133 H       371      M_A    0.0000
   2081 H          49.0364   44.5149   38.1694 H       371      M_A    0.0000
   2082 H          50.4380   43.8553   37.9100 H       371      M_A    0.0000
   2083 C          49.3632   42.9187   39.2386 C.3     372      M_A    0.0000
   2084 C          49.4569   41.8283   38.4185 C.3     372      M_A    0.0000
   2085 H          49.8947   42.7764   40.0483 H       372      M_A    0.0000
   2086 H          48.4364   43.0417   39.5288 H       372      M_A    0.0000
   2087 H          48.5918   41.6503   37.9964 H       372      M_A    0.0000
   2088 H          50.0915   42.0063   37.6946 H       372      M_A    0.0000
   2089 C          49.8676   40.6814   39.1062 C.3     373      M_A    0.0000
   2090 C          50.0632   39.6175   38.2694 C.3     373      M_A    0.0000
   2091 H          50.6936   40.8832   39.5913 H       373      M_A    0.0000
   2092 H          49.1931   40.4590   39.7799 H       373      M_A    0.0000
   2093 H          49.2187   39.3666   37.8424 H       373      M_A    0.0000
   2094 H          50.6792   39.8651   37.5500 H       373      M_A    0.0000
   2095 C          50.5778   38.5031   38.9402 C.3     374      M_A    0.0000
   2096 C          50.0180   37.3330   38.5066 C.3     374      M_A    0.0000
   2097 H          51.5481   38.4784   38.8128 H       374      M_A    0.0000
   2098 H          50.4231   38.6136   39.9005 H       374      M_A    0.0000
   2099 H          50.5631   36.5729   38.7955 H       374      M_A    0.0000
   2100 H          49.1339   37.2143   38.9096 H       374      M_A    0.0000
   2101 C          49.8882   37.2914   37.1144 C.3     375      M_A    0.0000
   2102 C          49.2772   36.1457   36.6849 C.3     375      M_A    0.0000
   2103 H          49.3781   38.0739   36.8216 H       375      M_A    0.0000
   2104 H          50.7773   37.3688   36.7121 H       375      M_A    0.0000
   2105 H          49.7352   35.7978   35.8927 H       375      M_A    0.0000
   2106 H          49.3411   35.4528   37.3734 H       375      M_A    0.0000
   2107 C          47.9287   36.3488   36.3733 C.3     376      M_A    0.0000
   2108 C          47.3911   35.2954   35.6865 C.3     376      M_A    0.0000
   2109 H          47.4318   36.4968   37.2036 H       376      M_A    0.0000
   2110 H          47.8468   37.1699   35.8465 H       376      M_A    0.0000
   2111 H          46.4836   35.1146   36.0058 H       376      M_A    0.0000
   2112 H          47.3156   35.5178   34.7361 H       376      M_A    0.0000
   2113 C          48.1556   34.1314   35.8177 C.3     377      M_A    0.0000
   2114 C          47.8879   33.2216   34.8323 C.3     377      M_A    0.0000
   2115 H          49.1041   34.3734   35.8024 H       377      M_A    0.0000
   2116 H          47.9805   33.7362   36.6960 H       377      M_A    0.0000
   2117 H          48.4259   32.4147   34.9653 H       377      M_A    0.0000
   2118 H          46.9500   32.9446   34.8771 H       377      M_A    0.0000
   2119 C          48.1471   33.7311   33.5556 C.3     378      M_A    0.0000
   2120 C          48.5511   32.7595   32.6820 C.3     378      M_A    0.0000
   2121 H          47.3382   34.1687   33.2203 H       378      M_A    0.0000
   2122 H          48.8336   34.4254   33.6264 H       378      M_A    0.0000
   2123 H          48.3796   33.0437   31.7611 H       378      M_A    0.0000
   2124 H          49.5171   32.6204   32.7580 H       378      M_A    0.0000
   2125 C          47.9012   31.5413   32.9064 C.3     379      M_A    0.0000
   2126 C          48.6820   30.4685   32.5749 C.3     379      M_A    0.0000
   2127 H          47.6434   31.4902   33.8494 H       379      M_A    0.0000
   2128 H          47.0716   31.5259   32.3869 H       379      M_A    0.0000
   2129 H          48.1217   29.7303   32.2595 H       379      M_A    0.0000
   2130 H          49.2793   30.7037   31.8358 H       379      M_A    0.0000
   2131 C          49.4530   30.0208   33.6528 C.3     380      M_A    0.0000
   2132 C          49.3735   28.6657   33.8194 C.3     380      M_A    0.0000
   2133 H          50.3837   30.2870   33.5071 H       380      M_A    0.0000
   2134 H          49.1540   30.4770   34.4656 H       380      M_A    0.0000
   2135 H          48.4579   28.3605   33.6557 H       380      M_A    0.0000
   2136 H          49.9422   28.2129   33.1637 H       380      M_A    0.0000
   2137 C          49.7593   28.2659   35.1032 C.3     381      M_A    0.0000
   2138 C          51.0540   27.8270   35.1422 C.3     381      M_A    0.0000
   2139 H          49.6416   29.0193   35.7170 H       381      M_A    0.0000
   2140 H          49.1556   27.5581   35.4079 H       381      M_A    0.0000
   2141 H          51.0875   26.9104   35.4843 H       381      M_A    0.0000
   2142 H          51.4278   27.8034   34.2378 H       381      M_A    0.0000
   2143 C          51.8645   28.6374   35.9441 C.3     382      M_A    0.0000
   2144 C          53.0941   28.0818   36.1670 C.2     382      M_A    0.0000
   2145 H          51.9638   29.5102   35.5121 H       382      M_A    0.0000
   2146 H          51.4083   28.7957   36.7957 H       382      M_A    0.0000
   2147 H          52.9947   27.2090   36.5991 H       382      M_A    0.0000
   2148 H          53.5503   27.9236   35.3154 H       382      M_A    0.0000
   2149 C          64.8843   61.7813   34.0232 C.2     383      M_A    0.0000
   2150 C          64.6575   60.7407   33.2011 C.3     383      M_A    0.0000
   2151 H          65.2161   61.4665   34.8706 H       383      M_A    0.0000
   2152 H          64.0598   62.2450   34.2041 H       383      M_A    0.0000
   2153 H          64.1144   61.0202   32.4566 H       383      M_A    0.0000
   2154 H          65.4889   60.4233   32.8332 H       383      M_A    0.0000
   2155 C          64.0290   59.6974   33.8416 C.3     384      M_A    0.0000
   2156 C          64.4438   58.4990   33.3923 C.3     384      M_A    0.0000
   2157 H          64.1930   59.7701   34.7878 H       384      M_A    0.0000
   2158 H          63.0780   59.7852   33.7183 H       384      M_A    0.0000
   2159 H          64.3513   58.4554   32.4347 H       384      M_A    0.0000
   2160 H          65.3797   58.3799   33.5854 H       384      M_A    0.0000
   2161 C          63.7391   57.4590   33.9538 C.3     385      M_A    0.0000
   2162 C          63.7498   56.3589   33.1794 C.3     385      M_A    0.0000
   2163 H          64.1163   57.2588   34.8170 H       385      M_A    0.0000
   2164 H          62.8327   57.7456   34.1078 H       385      M_A    0.0000
   2165 H          63.1714   56.4843   32.4197 H       385      M_A    0.0000
   2166 H          64.6350   56.2088   32.8312 H       385      M_A    0.0000
   2167 C          63.3459   55.2354   33.8637 C.3     386      M_A    0.0000
   2168 C          62.6319   54.3969   33.0910 C.3     386      M_A    0.0000
   2169 H          64.1244   54.7851   34.2079 H       386      M_A    0.0000
   2170 H          62.8240   55.5072   34.6260 H       386      M_A    0.0000
   2171 H          61.9658   54.8881   32.5985 H       386      M_A    0.0000
   2172 H          63.2052   53.9792   32.4396 H       386      M_A    0.0000
   2173 C          62.0065   53.4157   33.8256 C.3     387      M_A    0.0000
   2174 C          62.3640   52.1793   33.4337 C.3     387      M_A    0.0000
   2175 H          62.2194   53.5415   34.7563 H       387      M_A    0.0000
   2176 H          61.0534   53.5257   33.7426 H       387      M_A    0.0000
   2177 H          61.7083   51.8235   32.8246 H       387      M_A    0.0000
   2178 H          63.1979   52.2134   32.9532 H       387      M_A    0.0000
   2179 C          62.4987   51.3142   34.4953 C.3     388      M_A    0.0000
   2180 C          61.3299   50.7438   34.8398 C.3     388      M_A    0.0000
   2181 H          63.1415   50.6358   34.2632 H       388      M_A    0.0000
   2182 H          62.8642   51.7967   35.2444 H       388      M_A    0.0000
   2183 H          60.5951   51.2691   34.5058 H       388      M_A    0.0000
   2184 H          61.2549   49.8737   34.4340 H       388      M_A    0.0000
   2185 C          61.1964   50.6105   36.2029 C.3     389      M_A    0.0000
   2186 C          60.7614   49.3872   36.5554 C.3     389      M_A    0.0000
   2187 H          62.0470   50.7905   36.6172 H       389      M_A    0.0000
   2188 H          60.5855   51.2829   36.5222 H       389      M_A    0.0000
   2189 H          60.0800   49.0899   35.9432 H       389      M_A    0.0000
   2190 H          61.4820   48.7510   36.4972 H       389      M_A    0.0000
   2191 C          60.2507   49.3633   37.8330 C.3     390      M_A    0.0000
   2192 C          60.4572   48.1819   38.4427 C.3     390      M_A    0.0000
   2193 H          60.6558   50.0731   38.3425 H       390      M_A    0.0000
   2194 H          59.3076   49.5544   37.7940 H       390      M_A    0.0000
   2195 H          59.7115   47.5936   38.2839 H       390      M_A    0.0000
   2196 H          61.2340   47.7502   38.0717 H       390      M_A    0.0000
   2197 C          60.6324   48.3195   39.8007 C.3     391      M_A    0.0000
   2198 C          60.0780   47.3068   40.4914 C.3     391      M_A    0.0000
   2199 H          61.5756   48.3699   39.9884 H       391      M_A    0.0000
   2200 H          60.2496   49.1580   40.0796 H       391      M_A    0.0000
   2201 H          60.4516   47.2683   41.3782 H       391      M_A    0.0000
   2202 H          59.1325   47.4570   40.5960 H       391      M_A    0.0000
   2203 C          60.2685   46.0904   39.8768 C.3     392      M_A    0.0000
   2204 C          59.1542   45.3363   39.8822 C.3     392      M_A    0.0000
   2205 H          60.5600   46.2423   38.9716 H       392      M_A    0.0000
   2206 H          60.9839   45.6256   40.3234 H       392      M_A    0.0000
   2207 H          59.3226   44.4953   39.4444 H       392      M_A    0.0000
   2208 H          58.8992   45.1306   40.7877 H       392      M_A    0.0000
   2209 C          58.0997   45.9595   39.2551 C.3     393      M_A    0.0000
   2210 C          57.6192   45.2374   38.2266 C.3     393      M_A    0.0000
   2211 H          57.4035   46.1174   39.9015 H       393      M_A    0.0000
   2212 H          58.3900   46.8237   38.9447 H       393      M_A    0.0000
   2213 H          58.0420   45.5104   37.4055 H       393      M_A    0.0000
   2214 H          57.8304   44.3060   38.3500 H       393      M_A    0.0000
   2215 C          56.2564   45.3688   38.0888 C.3     394      M_A    0.0000
   2216 C          55.7366   44.4467   37.2584 C.3     394      M_A    0.0000
   2217 H          55.8482   45.2978   38.9582 H       394      M_A    0.0000
   2218 H          56.0612   46.2539   37.7632 H       394      M_A    0.0000
   2219 H          56.3523   44.2640   36.5409 H       394      M_A    0.0000
   2220 H          55.6048   43.6163   37.7280 H       394      M_A    0.0000
   2221 C          54.5350   44.8476   36.7205 C.3     395      M_A    0.0000
   2222 C          53.4849   44.2680   37.3299 C.3     395      M_A    0.0000
   2223 H          54.4687   45.8059   36.7886 H       395      M_A    0.0000
   2224 H          54.5296   44.6361   35.7810 H       395      M_A    0.0000
   2225 H          52.6620   44.5905   36.9476 H       395      M_A    0.0000
   2226 H          53.5029   43.3161   37.1846 H       395      M_A    0.0000
   2227 C          53.4694   44.5097   38.6845 C.3     396      M_A    0.0000
   2228 C          52.2358   44.3944   39.2089 C.2     396      M_A    0.0000
   2229 H          54.0708   43.8940   39.1166 H       396      M_A    0.0000
   2230 H          53.8156   45.3937   38.8460 H       396      M_A    0.0000
   2231 H          51.6344   45.0101   38.7768 H       396      M_A    0.0000
   2232 H          51.8896   43.5104   39.0474 H       396      M_A    0.0000
   2233 C          32.6997   23.0067   33.2989 C.2     397      M_A    0.0000
   2234 C          32.6889   24.5393   33.3090 C.3     397      M_A    0.0000
   2235 H          33.2841   22.6291   34.1471 H       397      M_A    0.0000
   2236 H          33.1915   22.6400   32.3894 H       397      M_A    0.0000
   2237 H          32.0158   24.9159   32.5288 H       397      M_A    0.0000
   2238 H          32.2983   24.9064   34.2662 H       397      M_A    0.0000
   2239 C          34.1165   25.1450   33.0801 C.3     398      M_A    0.0000
   2240 C          35.2115   24.0727   33.0933 C.3     398      M_A    0.0000
   2241 H          34.1246   25.6791   32.1218 H       398      M_A    0.0000
   2242 H          34.3126   25.8924   33.8589 H       398      M_A    0.0000
   2243 H          35.5012   23.8435   34.1263 H       398      M_A    0.0000
   2244 H          34.8300   23.1403   32.6589 H       398      M_A    0.0000
   2245 C          36.4871   24.5162   32.2973 C.3     399      M_A    0.0000
   2246 C          37.7621   23.8491   32.8248 C.3     399      M_A    0.0000
   2247 H          36.3453   24.2714   31.2373 H       399      M_A    0.0000
   2248 H          36.5805   25.6076   32.3588 H       399      M_A    0.0000
   2249 H          37.8997   24.0876   33.8868 H       399      M_A    0.0000
   2250 H          37.6717   22.7579   32.7562 H       399      M_A    0.0000
   2251 C          39.0391   24.3009   32.0358 C.3     400      M_A    0.0000
   2252 C          40.0124   25.0963   32.9127 C.3     400      M_A    0.0000
   2253 H          39.5380   23.4114   31.6314 H       400      M_A    0.0000
   2254 H          38.7275   24.9059   31.1754 H       400      M_A    0.0000
   2255 H          39.4871   25.5002   33.7870 H       400      M_A    0.0000
   2256 H          40.7998   24.4354   33.2958 H       400      M_A    0.0000
   2257 C          40.6817   26.2807   32.1337 C.3     401      M_A    0.0000
   2258 C          40.1365   27.6449   32.5706 C.3     401      M_A    0.0000
   2259 H          41.7664   26.2406   32.2929 H       401      M_A    0.0000
   2260 H          40.5154   26.1359   31.0590 H       401      M_A    0.0000
   2261 H          39.4362   27.5202   33.4058 H       401      M_A    0.0000
   2262 H          40.9547   28.2770   32.9374 H       401      M_A    0.0000
   2263 C          39.4038   28.3932   31.4042 C.3     402      M_A    0.0000
   2264 C          38.1651   29.1541   31.8898 C.3     402      M_A    0.0000
   2265 H          40.1096   29.0867   30.9305 H       402      M_A    0.0000
   2266 H          39.1192   27.6612   30.6382 H       402      M_A    0.0000
   2267 H          37.6152   28.5495   32.6216 H       402      M_A    0.0000
   2268 H          38.4670   30.0745   32.4049 H       402      M_A    0.0000
   2269 C          37.1981   29.5272   30.7137 C.3     403      M_A    0.0000
   2270 C          36.5993   30.9286   30.8765 C.3     403      M_A    0.0000
   2271 H          37.7499   29.4614   29.7678 H       403      M_A    0.0000
   2272 H          36.3970   28.7793   30.6639 H       403      M_A    0.0000
   2273 H          35.8121   30.9149   31.6405 H       403      M_A    0.0000
   2274 H          37.3680   31.6276   31.2286 H       403      M_A    0.0000
   2275 C          35.9944   31.4753   29.5376 C.3     404      M_A    0.0000
   2276 C          35.9514   33.0070   29.5023 C.3     404      M_A    0.0000
   2277 H          36.5917   31.0964   28.6990 H       404      M_A    0.0000
   2278 H          34.9834   31.0677   29.4138 H       404      M_A    0.0000
   2279 H          36.8738   33.3990   29.0561 H       404      M_A    0.0000
   2280 H          35.1247   33.3455   28.8656 H       404      M_A    0.0000
   2281 C          35.7769   33.6294   30.9305 C.3     405      M_A    0.0000
   2282 C          35.9414   35.1532   30.9241 C.3     405      M_A    0.0000
   2283 H          34.7855   33.3597   31.3150 H       405      M_A    0.0000
   2284 H          36.5114   33.1746   31.6066 H       405      M_A    0.0000
   2285 H          36.9992   35.4168   30.8005 H       405      M_A    0.0000
   2286 H          35.4071   35.5856   30.0691 H       405      M_A    0.0000
   2287 C          35.4065   35.8140   32.2411 C.3     406      M_A    0.0000
   2288 C          35.3864   37.3442   32.1565 C.3     406      M_A    0.0000
   2289 H          34.3967   35.4351   32.4420 H       406      M_A    0.0000
   2290 H          36.0364   35.4919   33.0795 H       406      M_A    0.0000
   2291 H          36.3348   37.7539   32.5257 H       406      M_A    0.0000
   2292 H          35.2919   37.6619   31.1107 H       406      M_A    0.0000
   2293 C          34.2102   37.9696   32.9828 C.3     407      M_A    0.0000
   2294 C          34.2507   39.5017   32.9830 C.3     407      M_A    0.0000
   2295 H          33.2586   37.6185   32.5648 H       407      M_A    0.0000
   2296 H          34.2608   37.5918   34.0116 H       407      M_A    0.0000
   2297 H          34.6665   39.9501   32.0207 H       407      M_A    0.0000
   2298 H          33.1191   39.6368   32.9450 H       407      M_A    0.0000
   2299 C          34.8376   40.3412   34.2501 C.3     408      M_A    0.0000
   2300 C          35.2753   41.8183   33.8450 C.3     408      M_A    0.0000
   2301 H          34.0420   40.3791   35.0660 H       408      M_A    0.0000
   2302 H          35.7266   39.7755   34.6856 H       408      M_A    0.0000
   2303 H          34.9359   42.0487   32.7811 H       408      M_A    0.0000
   2304 H          34.7632   42.5778   34.5239 H       408      M_A    0.0000
   2305 C          36.8877   42.0323   33.9397 C.3     409      M_A    0.0000
   2306 C          37.3227   43.5176   33.5627 C.3     409      M_A    0.0000
   2307 H          37.2302   41.7813   34.9979 H       409      M_A    0.0000
   2308 H          37.3989   41.2869   33.2446 H       409      M_A    0.0000
   2309 H          37.0053   43.7588   32.4945 H       409      M_A    0.0000
   2310 H          36.7896   44.2648   34.2393 H       409      M_A    0.0000
   2311 C          38.9308   43.7428   33.6963 C.3     410      M_A    0.0000
   2312 C          39.3517   45.2575   33.4395 C.3     410      M_A    0.0000
   2313 H          39.2625   43.4159   34.7371 H       410      M_A    0.0000
   2314 H          39.4607   43.0586   32.9539 H       410      M_A    0.0000
   2315 H          39.3380   45.4831   32.3219 H       410      M_A    0.0000
   2316 H          38.5966   45.9608   33.9248 H       410      M_A    0.0000
   2317 C          40.8345   45.5942   34.0250 C.3     411      M_A    0.0000
   2318 C          41.2221   47.1283   33.8414 C.3     411      M_A    0.0000
   2319 H          40.8662   45.3124   35.1294 H       411      M_A    0.0000
   2320 H          41.5974   44.9321   33.4962 H       411      M_A    0.0000
   2321 H          40.6305   47.7714   34.5738 H       411      M_A    0.0000
   2322 H          42.3249   47.2848   34.0851 H       411      M_A    0.0000
   2323 C          40.9382   47.6599   32.3277 C.3     412      M_A    0.0000
   2324 C          41.3593   49.1840   32.1342 C.3     412      M_A    0.0000
   2325 H          41.5090   47.0004   31.5933 H       412      M_A    0.0000
   2326 H          39.8301   47.5278   32.0935 H       412      M_A    0.0000
   2327 H          41.2843   49.4737   31.0339 H       412      M_A    0.0000
   2328 H          40.6403   49.8633   32.7014 H       412      M_A    0.0000
   2329 C          42.8763   49.4759   32.6519 C.3     413      M_A    0.0000
   2330 C          43.8191   50.0138   31.4859 C.3     413      M_A    0.0000
   2331 H          42.8349   50.2342   33.5024 H       413      M_A    0.0000
   2332 H          43.3063   48.5152   33.0904 H       413      M_A    0.0000
   2333 H          43.7511   49.3256   30.5793 H       413      M_A    0.0000
   2334 H          43.4682   51.0430   31.1428 H       413      M_A    0.0000
   2335 C          45.3773   50.1181   31.9503 C.3     414      M_A    0.0000
   2336 C          46.3699   49.4778   30.8816 C.3     414      M_A    0.0000
   2337 H          45.6382   51.2153   32.1180 H       414      M_A    0.0000
   2338 H          45.4966   49.5957   32.9568 H       414      M_A    0.0000
   2339 H          46.0259   48.4253   30.6099 H       414      M_A    0.0000
   2340 H          46.3526   50.0870   29.9179 H       414      M_A    0.0000
   2341 C          47.9028   49.4044   31.4289 C.3     415      M_A    0.0000
   2342 C          48.8164   48.4496   30.5394 C.3     415      M_A    0.0000
   2343 H          48.3382   50.4581   31.4450 H       415      M_A    0.0000
   2344 H          47.8903   49.0387   32.5088 H       415      M_A    0.0000
   2345 H          48.3686   47.4015   30.5045 H       415      M_A    0.0000
   2346 H          48.8474   48.8284   29.4644 H       415      M_A    0.0000
   2347 C          50.3409   48.3507   31.1056 C.3     416      M_A    0.0000
   2348 C          51.1435   47.1310   30.4686 C.3     416      M_A    0.0000
   2349 H          50.8794   49.3311   30.8845 H       416      M_A    0.0000
   2350 H          50.3054   48.2453   32.2404 H       416      M_A    0.0000
   2351 H          50.6592   46.1439   30.7708 H       416      M_A    0.0000
   2352 H          51.0966   47.1838   29.3306 H       416      M_A    0.0000
   2353 C          52.7061   47.1121   30.9296 C.3     417      M_A    0.0000
   2354 C          53.3107   45.6385   30.9535 C.3     417      M_A    0.0000
   2355 H          53.3072   47.7697   30.2180 H       417      M_A    0.0000
   2356 H          52.7902   47.5859   31.9633 H       417      M_A    0.0000
   2357 H          52.6620   44.9602   31.6010 H       417      M_A    0.0000
   2358 H          53.3015   45.1950   29.9031 H       417      M_A    0.0000
   2359 C          54.8367   45.6063   31.5237 C.3     418      M_A    0.0000
   2360 C          55.6664   44.3696   30.9584 C.3     418      M_A    0.0000
   2361 H          55.3536   46.5838   31.2456 H       418      M_A    0.0000
   2362 H          54.8026   45.5664   32.6627 H       418      M_A    0.0000
   2363 H          55.3422   43.4095   31.4812 H       418      M_A    0.0000
   2364 H          55.4487   44.2274   29.8482 H       418      M_A    0.0000
   2365 C          57.2721   44.5601   31.1585 C.3     419      M_A    0.0000
   2366 C          57.9508   43.2893   31.8382 C.3     419      M_A    0.0000
   2367 H          57.7479   44.7605   30.1419 H       419      M_A    0.0000
   2368 H          57.4556   45.4884   31.7947 H       419      M_A    0.0000
   2369 H          57.4196   43.0382   32.8154 H       419      M_A    0.0000
   2370 H          57.8397   42.3781   31.1617 H       419      M_A    0.0000
   2371 C          59.5332   43.5250   32.1461 C.3     420      M_A    0.0000
   2372 C          60.2002   42.2733   32.8713 C.3     420      M_A    0.0000
   2373 H          60.0708   43.7398   31.1637 H       420      M_A    0.0000
   2374 H          59.6470   44.4576   32.7922 H       420      M_A    0.0000
   2375 H          61.3343   42.3900   32.8884 H       420      M_A    0.0000
   2376 H          59.8596   42.2242   33.9584 H       420      M_A    0.0000
   2377 C          59.8280   40.8656   32.1403 C.3     421      M_A    0.0000
   2378 C          59.8758   39.6317   33.1466 C.3     421      M_A    0.0000
   2379 H          58.7888   40.9543   31.6795 H       421      M_A    0.0000
   2380 H          60.5549   40.6956   31.2784 H       421      M_A    0.0000
   2381 H          60.8976   39.1281   33.0994 H       421      M_A    0.0000
   2382 H          59.7394   39.9958   34.2185 H       421      M_A    0.0000
   2383 C          58.7281   38.5226   32.8187 C.3     422      M_A    0.0000
   2384 C          59.1168   37.0745   33.3564 C.3     422      M_A    0.0000
   2385 H          57.7448   38.8621   33.2856 H       422      M_A    0.0000
   2386 H          58.5608   38.4892   31.6913 H       422      M_A    0.0000
   2387 H          59.5747   36.4551   32.5156 H       422      M_A    0.0000
   2388 H          59.9110   37.1597   34.1701 H       422      M_A    0.0000
   2389 C          57.8318   36.2739   33.9585 C.3     423      M_A    0.0000
   2390 C          57.2563   35.1985   32.9340 C.3     423      M_A    0.0000
   2391 H          58.1396   35.7627   34.9301 H       423      M_A    0.0000
   2392 H          57.0217   37.0294   34.2285 H       423      M_A    0.0000
   2393 H          56.3739   35.6377   32.3608 H       423      M_A    0.0000
   2394 H          58.0499   34.9323   32.1597 H       423      M_A    0.0000
   2395 C          56.7711   33.8333   33.6794 C.3     424      M_A    0.0000
   2396 C          57.0803   32.5312   32.8155 C.3     424      M_A    0.0000
   2397 H          57.2905   33.7631   34.6920 H       424      M_A    0.0000
   2398 H          55.6528   33.9068   33.8894 H       424      M_A    0.0000
   2399 H          56.3462   32.4554   31.9463 H       424      M_A    0.0000
   2400 H          58.1224   32.6035   32.3586 H       424      M_A    0.0000
   2401 C          56.9886   31.1666   33.7009 C.3     425      M_A    0.0000
   2402 C          55.8848   30.1604   33.1468 C.3     425      M_A    0.0000
   2403 H          58.0109   30.6618   33.7050 H       425      M_A    0.0000
   2404 H          56.7564   31.4448   34.7820 H       425      M_A    0.0000
   2405 H          55.0682   30.7385   32.5999 H       425      M_A    0.0000
   2406 H          56.3499   29.4508   32.3851 H       425      M_A    0.0000
   2407 C          55.1997   29.2803   34.3345 C.3     426      M_A    0.0000
   2408 C          53.9178   28.4803   33.8304 C.2     426      M_A    0.0000
   2409 H          55.9756   28.5547   34.7486 H       426      M_A    0.0000
   2410 H          54.9139   29.9774   35.1904 H       426      M_A    0.0000
   2411 H          53.1419   29.2060   33.4164 H       426      M_A    0.0000
   2412 H          54.2036   27.7832   32.9746 H       426      M_A    0.0000
   2413 C          28.5593   36.1990   23.7257 C.2     427      M_A    0.0000
   2414 C          27.3823   35.2401   23.8304 C.3     427      M_A    0.0000
   2415 H          29.4952   35.6418   23.7151 H       427      M_A    0.0000
   2416 H          28.5914   36.8478   24.6000 H       427      M_A    0.0000
   2417 H          26.4817   35.7098   23.4372 H       427      M_A    0.0000
   2418 H          27.5655   34.3560   23.2212 H       427      M_A    0.0000
   2419 C          27.1151   34.7922   25.2969 C.3     428      M_A    0.0000
   2420 C          28.2097   33.8790   25.8296 C.3     428      M_A    0.0000
   2421 H          27.0297   35.6783   25.9246 H       428      M_A    0.0000
   2422 H          26.1521   34.2849   25.3391 H       428      M_A    0.0000
   2423 H          28.4486   33.1133   25.0927 H       428      M_A    0.0000
   2424 H          29.1230   34.4486   25.9962 H       428      M_A    0.0000
   2425 C          27.8019   33.1840   27.1612 C.3     429      M_A    0.0000
   2426 C          28.8984   32.2746   27.6964 C.3     429      M_A    0.0000
   2427 H          27.5594   33.9496   27.8969 H       429      M_A    0.0000
   2428 H          26.8905   32.6114   26.9936 H       429      M_A    0.0000
   2429 H          28.7975   31.2773   27.2704 H       429      M_A    0.0000
   2430 H          29.8751   32.6478   27.3913 H       429      M_A    0.0000
   2431 C          28.8665   32.1627   29.2485 C.3     430      M_A    0.0000
   2432 C          29.5132   30.8788   29.7476 C.3     430      M_A    0.0000
   2433 H          29.3756   33.0269   29.6733 H       430      M_A    0.0000
   2434 H          27.8312   32.2140   29.5830 H       430      M_A    0.0000
   2435 H          29.2827   30.0570   29.0708 H       430      M_A    0.0000
   2436 H          30.5973   30.9844   29.7535 H       430      M_A    0.0000
   2437 C          29.0385   30.4973   31.1799 C.3     431      M_A    0.0000
   2438 C          29.6652   29.1996   31.6687 C.3     431      M_A    0.0000
   2439 H          29.2861   31.3111   31.8602 H       431      M_A    0.0000
   2440 H          27.9527   30.4103   31.1784 H       431      M_A    0.0000
   2441 H          29.0260   28.3560   31.4114 H       431      M_A    0.0000
   2442 H          30.6185   29.0337   31.1686 H       431      M_A    0.0000
   2443 C          29.8994   29.2006   33.2074 C.3     432      M_A    0.0000
   2444 C          29.2118   28.0308   33.8962 C.3     432      M_A    0.0000
   2445 H          30.9711   29.1695   33.3995 H       432      M_A    0.0000
   2446 H          29.5353   30.1418   33.6174 H       432      M_A    0.0000
   2447 H          28.2515   28.3477   34.3010 H       432      M_A    0.0000
   2448 H          29.0020   27.2430   33.1738 H       432      M_A    0.0000
   2449 C          30.0715   27.4375   35.0500 C.3     433      M_A    0.0000
   2450 C          29.3903   26.2583   35.7292 C.3     433      M_A    0.0000
   2451 H          31.0358   27.1304   34.6473 H       433      M_A    0.0000
   2452 H          30.2722   28.2227   35.7778 H       433      M_A    0.0000
   2453 H          29.5255   26.3197   36.8083 H       433      M_A    0.0000
   2454 H          28.3170   26.2909   35.5461 H       433      M_A    0.0000
   2455 C          29.9428   24.8911   35.2313 C.3     434      M_A    0.0000
   2456 C          29.7784   23.7902   36.2690 C.3     434      M_A    0.0000
   2457 H          29.4268   24.6177   34.3118 H       434      M_A    0.0000
   2458 H          30.9951   25.0096   34.9761 H       434      M_A    0.0000
   2459 H          29.6473   24.2263   37.2585 H       434      M_A    0.0000
   2460 H          28.8794   23.2117   36.0605 H       434      M_A    0.0000
   2461 C          30.9992   22.8253   36.3037 C.3     435      M_A    0.0000
   2462 C          30.5787   21.3628   36.2953 C.3     435      M_A    0.0000
   2463 H          31.6373   23.0354   35.4463 H       435      M_A    0.0000
   2464 H          31.5903   23.0389   37.1933 H       435      M_A    0.0000
   2465 H          30.5478   20.9773   37.3136 H       435      M_A    0.0000
   2466 H          29.5709   21.2663   35.8936 H       435      M_A    0.0000
   2467 C          31.5418   20.4770   35.4525 C.3     436      M_A    0.0000
   2468 C          30.8652   19.9055   34.2150 C.3     436      M_A    0.0000
   2469 H          32.4057   21.0742   35.1636 H       436      M_A    0.0000
   2470 H          31.9157   19.6693   36.0803 H       436      M_A    0.0000
   2471 H          31.5248   19.1903   33.7254 H       436      M_A    0.0000
   2472 H          29.9670   19.3588   34.4994 H       436      M_A    0.0000
   2473 C          30.4762   21.0116   33.1914 C.3     437      M_A    0.0000
   2474 C          31.0208   20.7264   31.7994 C.2     437      M_A    0.0000
   2475 H          29.3906   21.0932   33.1583 H       437      M_A    0.0000
   2476 H          30.8511   21.9694   33.5501 H       437      M_A    0.0000
   2477 H          32.1065   20.6448   31.8325 H       437      M_A    0.0000
   2478 H          30.6460   19.7686   31.4407 H       437      M_A    0.0000
   2479 C          21.0103   30.2870    5.9507 C.2     438      M_A    0.0000
   2480 C          20.6471   31.6227    5.9408 C.3     438      M_A    0.0000
   2481 H          21.5989   30.1008    6.7256 H       438      M_A    0.0000
   2482 H          21.5335   30.0712    5.1375 H       438      M_A    0.0000
   2483 H          19.9097   31.7695    5.2956 H       438      M_A    0.0000
   2484 H          20.3030   31.8878    6.8313 H       438      M_A    0.0000
   2485 C          21.7283   32.4702    5.5985 C.3     439      M_A    0.0000
   2486 C          22.9503   31.8276    5.6977 C.3     439      M_A    0.0000
   2487 H          21.5934   32.8029    4.6751 H       439      M_A    0.0000
   2488 H          21.7125   33.2635    6.1919 H       439      M_A    0.0000
   2489 H          23.1818   31.6830    6.6501 H       439      M_A    0.0000
   2490 H          22.8978   30.9314    5.2785 H       439      M_A    0.0000
   2491 C          23.9931   32.5597    5.0806 C.3     440      M_A    0.0000
   2492 C          25.2453   32.1407    5.4960 C.3     440      M_A    0.0000
   2493 H          23.9118   32.4646    4.0977 H       440      M_A    0.0000
   2494 H          23.8719   33.5217    5.2844 H       440      M_A    0.0000
   2495 H          25.3259   32.2338    6.4790 H       440      M_A    0.0000
   2496 H          25.3673   31.1792    5.2903 H       440      M_A    0.0000
   2497 C          26.2880   32.8747    4.8810 C.3     441      M_A    0.0000
   2498 C          27.4618   32.8328    5.6135 C.3     441      M_A    0.0000
   2499 H          26.4416   32.5112    3.9722 H       441      M_A    0.0000
   2500 H          25.9929   33.8135    4.7658 H       441      M_A    0.0000
   2501 H          27.3339   33.2842    6.4862 H       441      M_A    0.0000
   2502 H          27.7048   31.8930    5.8123 H       441      M_A    0.0000
   2503 C          28.5403   33.4492    4.9345 C.3     442      M_A    0.0000
   2504 C          29.7506   33.2390    5.5724 C.3     442      M_A    0.0000
   2505 H          28.5783   33.0971    4.0092 H       442      M_A    0.0000
   2506 H          28.3587   34.4205    4.8620 H       442      M_A    0.0000
   2507 H          29.7843   33.7569    6.4164 H       442      M_A    0.0000
   2508 H          29.8425   32.2842    5.8206 H       442      M_A    0.0000
   2509 C          30.8537   33.6091    4.7657 C.3     443      M_A    0.0000
   2510 C          32.0634   33.4128    5.4092 C.3     443      M_A    0.0000
   2511 H          30.8261   33.0833    3.9264 H       443      M_A    0.0000
   2512 H          30.7562   34.5609    4.5086 H       443      M_A    0.0000
   2513 H          32.6370   32.8055    4.8764 H       443      M_A    0.0000
   2514 H          32.5514   34.2718    5.4846 H       443      M_A    0.0000
   2515 C          31.8995   32.8659    6.7048 C.3     444      M_A    0.0000
   2516 C          33.0599   32.9393    7.4558 C.3     444      M_A    0.0000
   2517 H          31.1662   33.3481    7.1645 H       444      M_A    0.0000
   2518 H          31.6095   31.9224    6.6188 H       444      M_A    0.0000
   2519 H          32.9238   32.5028    8.3348 H       444      M_A    0.0000
   2520 H          33.7895   32.4453    7.0028 H       444      M_A    0.0000
   2521 C          33.4772   34.2751    7.6694 C.3     445      M_A    0.0000
   2522 C          34.7008   34.3460    8.3125 C.3     445      M_A    0.0000
   2523 H          33.5258   34.7382    6.7948 H       445      M_A    0.0000
   2524 H          32.7859   34.7444    8.2018 H       445      M_A    0.0000
   2525 H          34.6119   34.0305    9.2475 H       445      M_A    0.0000
   2526 H          35.3525   33.7448    7.8702 H       445      M_A    0.0000
   2527 C          35.2264   35.6605    8.3225 C.3     446      M_A    0.0000
   2528 C          36.5657   35.6927    7.9741 C.3     446      M_A    0.0000
   2529 H          34.6992   36.2200    7.6975 H       446      M_A    0.0000
   2530 H          35.1011   36.0477    9.2259 H       446      M_A    0.0000
   2531 H          37.1201   35.3604    8.7249 H       446      M_A    0.0000
   2532 H          36.7320   35.0869    7.2078 H       446      M_A    0.0000
   2533 C          36.9990   36.9954    7.6284 C.3     447      M_A    0.0000
   2534 C          37.2198   37.1312    6.2687 C.3     447      M_A    0.0000
   2535 H          36.3176   37.6488    7.9288 H       447      M_A    0.0000
   2536 H          37.8291   37.1993    8.1294 H       447      M_A    0.0000
   2537 H          37.9974   37.7238    6.1083 H       447      M_A    0.0000
   2538 H          37.4455   36.2520    5.8717 H       447      M_A    0.0000
   2539 C          36.0946   37.6619    5.5928 C.3     448      M_A    0.0000
   2540 C          36.4148   38.7752    4.8351 C.3     448      M_A    0.0000
   2541 H          35.7080   36.9568    5.0140 H       448      M_A    0.0000
   2542 H          35.4008   37.8937    6.2609 H       448      M_A    0.0000
   2543 H          37.1097   39.3108    5.2953 H       448      M_A    0.0000
   2544 H          36.8000   38.4955    3.9662 H       448      M_A    0.0000
   2545 C          35.2900   39.5998    4.5914 C.3     449      M_A    0.0000
   2546 C          35.6500   40.9003    4.2834 C.3     449      M_A    0.0000
   2547 H          34.7621   39.2087    3.8497 H       449      M_A    0.0000
   2548 H          34.7068   39.5892    5.3922 H       449      M_A    0.0000
   2549 H          34.9462   41.3258    3.7308 H       449      M_A    0.0000
   2550 H          35.7244   41.4376    5.1125 H       449      M_A    0.0000
   2551 C          36.8800   40.9657    3.5854 C.3     450      M_A    0.0000
   2552 C          37.0527   42.1775    2.9391 C.3     450      M_A    0.0000
   2553 H          37.6197   40.8144    4.2269 H       450      M_A    0.0000
   2554 H          36.9152   40.2232    2.9303 H       450      M_A    0.0000
   2555 H          36.2045   42.4578    2.5105 H       450      M_A    0.0000
   2556 H          37.2864   42.8821    3.5951 H       450      M_A    0.0000
   2557 C          38.0655   42.1193    1.9515 C.3     451      M_A    0.0000
   2558 C          39.2419   42.7161    2.3709 C.3     451      M_A    0.0000
   2559 H          38.2301   41.1705    1.7184 H       451      M_A    0.0000
   2560 H          37.7349   42.5612    1.1287 H       451      M_A    0.0000
   2561 H          39.9042   42.7161    1.6340 H       451      M_A    0.0000
   2562 H          39.0770   43.6645    2.6052 H       451      M_A    0.0000
   2563 C          39.8062   42.0606    3.4917 C.3     452      M_A    0.0000
   2564 C          40.9577   41.3643    3.1673 C.3     452      M_A    0.0000
   2565 H          40.0024   42.7348    4.1906 H       452      M_A    0.0000
   2566 H          39.1319   41.4431    3.8734 H       452      M_A    0.0000
   2567 H          40.8312   40.8775    2.3137 H       452      M_A    0.0000
   2568 H          41.7081   41.9956    3.0264 H       452      M_A    0.0000
   2569 C          41.3244   40.4363    4.1717 C.3     453      M_A    0.0000
   2570 C          42.5659   40.7160    4.7162 C.2     453      M_A    0.0000
   2571 H          40.6328   40.4436    4.8812 H       453      M_A    0.0000
   2572 H          41.3220   39.5257    3.7814 H       453      M_A    0.0000
   2573 H          43.2575   40.7087    4.0068 H       453      M_A    0.0000
   2574 H          42.5683   41.6267    5.1065 H       453      M_A    0.0000
   2575 C          73.2592   16.9889   45.2703 C.2     454      M_A    0.0000
   2576 C          72.1128   16.2785   44.2792 C.3     454      M_A    0.0000
   2577 H          72.7302   17.4680   46.2325 H       454      M_A    0.0000
   2578 H          73.8015   17.8874   44.6927 H       454      M_A    0.0000
   2579 H          72.6492   15.5896   43.4589 H       454      M_A    0.0000
   2580 H          71.4032   15.5587   44.9223 H       454      M_A    0.0000
   2581 C          71.1415   17.4374   43.4767 C.3     455      M_A    0.0000
   2582 C          72.0532   18.5203   42.5839 C.3     455      M_A    0.0000
   2583 H          70.3681   16.8651   42.7628 H       455      M_A    0.0000
   2584 H          70.4881   18.0243   44.2914 H       455      M_A    0.0000
   2585 H          72.9207   18.9869   43.2658 H       455      M_A    0.0000
   2586 H          72.5950   17.9527   41.6787 H       455      M_A    0.0000
   2587 C          71.1056   19.7958   41.9472 C.3     456      M_A    0.0000
   2588 C          72.0385   21.0974   41.4607 C.3     456      M_A    0.0000
   2589 H          70.4682   19.3789   41.0224 H       456      M_A    0.0000
   2590 H          70.3172   20.1437   42.7794 H       456      M_A    0.0000
   2591 H          73.0195   21.1776   42.1437 H       456      M_A    0.0000
   2592 H          72.4153   20.9349   40.3352 H       456      M_A    0.0000
   2593 C          71.1829   22.5775   41.5480 C.3     457      M_A    0.0000
   2594 C          71.7998   23.7293   40.5020 C.3     457      M_A    0.0000
   2595 H          70.0294   22.3720   41.2986 H       457      M_A    0.0000
   2596 H          71.2245   22.9817   42.6749 H       457      M_A    0.0000
   2597 H          72.9804   23.8456   40.6691 H       457      M_A    0.0000
   2598 H          71.6459   23.3780   39.3671 H       457      M_A    0.0000
   2599 C          71.0596   25.2586   40.7115 C.3     458      M_A    0.0000
   2600 C          71.0197   26.1438   39.2916 C.3     458      M_A    0.0000
   2601 H          69.9473   25.0958   41.1255 H       458      M_A    0.0000
   2602 H          71.6559   25.8637   41.5562 H       458      M_A    0.0000
   2603 H          71.9419   25.8379   38.5908 H       458      M_A    0.0000
   2604 H          70.0225   25.8908   38.6778 H       458      M_A    0.0000
   2605 C          71.0791   27.8306   39.5768 C.3     459      M_A    0.0000
   2606 C          69.9877   28.6732   38.6280 C.3     459      M_A    0.0000
   2607 H          70.8579   28.0342   40.7365 H       459      M_A    0.0000
   2608 H          72.1925   28.2190   39.3656 H       459      M_A    0.0000
   2609 H          70.0792   28.3219   37.4863 H       459      M_A    0.0000
   2610 H          68.8674   28.4282   38.9745 H       459      M_A    0.0000
   2611 C          70.2318   30.3657   38.7058 C.3     460      M_A    0.0000
   2612 C          69.4743   31.1741   37.4513 C.3     460      M_A    0.0000
   2613 H          69.8240   30.7667   39.7585 H       460      M_A    0.0000
   2614 H          71.4089   30.5874   38.6858 H       460      M_A    0.0000
   2615 H          69.2527   30.4174   36.5494 H       460      M_A    0.0000
   2616 H          68.4135   31.5954   37.8154 H       460      M_A    0.0000
   2617 C          70.4123   32.4782   36.8597 C.3     461      M_A    0.0000
   2618 C          69.6304   33.3215   35.6437 C.3     461      M_A    0.0000
   2619 H          70.6689   33.2135   37.7700 H       461      M_A    0.0000
   2620 H          71.4568   32.0512   36.4574 H       461      M_A    0.0000
   2621 H          68.7589   33.9992   36.1087 H       461      M_A    0.0000
   2622 H          70.3961   34.0683   35.1040 H       461      M_A    0.0000
   2623 C          68.9516   32.2812   34.4658 C.3     462      M_A    0.0000
   2624 C          68.0888   33.1187   33.3016 C.3     462      M_A    0.0000
   2625 H          69.8326   31.6531   33.9516 H       462      M_A    0.0000
   2626 H          68.2394   31.4894   35.0144 H       462      M_A    0.0000
   2627 H          68.8351   33.7649   32.6228 H       462      M_A    0.0000
   2628 H          67.5352   32.3500   32.5683 H       462      M_A    0.0000
   2629 C          66.9207   34.1654   33.9875 C.3     463      M_A    0.0000
   2630 C          65.6468   34.4648   32.9441 C.3     463      M_A    0.0000
   2631 H          66.5139   33.6773   35.0031 H       463      M_A    0.0000
   2632 H          67.4545   35.1943   34.2900 H       463      M_A    0.0000
   2633 H          65.2189   35.5692   33.1246 H       463      M_A    0.0000
   2634 H          66.0274   34.4246   31.8089 H       463      M_A    0.0000
   2635 C          64.3709   33.3402   33.1385 C.3     464      M_A    0.0000
   2636 C          62.8656   34.0620   33.0198 C.3     464      M_A    0.0000
   2637 H          64.4820   32.4831   32.3089 H       464      M_A    0.0000
   2638 H          64.4870   32.8049   34.2039 H       464      M_A    0.0000
   2639 H          62.6060   34.6403   34.0364 H       464      M_A    0.0000
   2640 H          62.8717   34.8840   32.1484 H       464      M_A    0.0000
   2641 C          61.6253   32.9267   32.6987 C.3     465      M_A    0.0000
   2642 C          60.2318   33.2465   33.5689 C.3     465      M_A    0.0000
   2643 H          61.3876   32.9362   31.5246 H       465      M_A    0.0000
   2644 H          62.0293   31.8294   32.9590 H       465      M_A    0.0000
   2645 H          59.3090   32.6402   33.1041 H       465      M_A    0.0000
   2646 H          60.3574   32.8688   34.6988 H       465      M_A    0.0000
   2647 C          59.8449   34.9140   33.5843 C.3     466      M_A    0.0000
   2648 C          58.4302   35.2445   32.7533 C.3     466      M_A    0.0000
   2649 H          59.7477   35.2773   34.7217 H       466      M_A    0.0000
   2650 H          60.7559   35.5262   33.1042 H       466      M_A    0.0000
   2651 H          57.7415   35.9866   33.3937 H       466      M_A    0.0000
   2652 H          58.6795   35.8074   31.7256 H       466      M_A    0.0000
   2653 C          57.5370   33.8267   32.4033 C.3     467      M_A    0.0000
   2654 C          56.1707   33.6857   33.3596 C.3     467      M_A    0.0000
   2655 H          57.2286   33.8405   31.2458 H       467      M_A    0.0000
   2656 H          58.2473   32.8746   32.5588 H       467      M_A    0.0000
   2657 H          55.8703   34.7555   33.8072 H       467      M_A    0.0000
   2658 H          55.2426   33.3166   32.6981 H       467      M_A    0.0000
   2659 C          56.3957   32.5891   34.6548 C.3     468      M_A    0.0000
   2660 C          55.5730   31.1509   34.4184 C.3     468      M_A    0.0000
   2661 H          57.5678   32.3759   34.7810 H       468      M_A    0.0000
   2662 H          56.0295   33.1098   35.6696 H       468      M_A    0.0000
   2663 H          54.5359   31.3586   33.8559 H       468      M_A    0.0000
   2664 H          56.2097   30.4252   33.7091 H       468      M_A    0.0000
   2665 C          55.2494   30.3391   35.8904 C.3     469      M_A    0.0000
   2666 C          55.5202   28.6913   35.7788 C.2     469      M_A    0.0000
   2667 H          55.9366   30.8110   36.7507 H       469      M_A    0.0000
   2668 H          54.1125   30.5482   36.2048 H       469      M_A    0.0000
   2669 H          54.8330   28.2194   34.9184 H       469      M_A    0.0000
   2670 H          56.6571   28.4822   35.4644 H       469      M_A    0.0000
   2671 C         132.2252   50.8339   39.0665 C.2     470      M_A    0.0000
   2672 C         131.5181   49.8981   38.1722 C.3     470      M_A    0.0000
   2673 H         133.2330   50.5386   39.1758 H       470      M_A    0.0000
   2674 H         131.7955   50.8079   40.0305 H       470      M_A    0.0000
   2675 H         130.5133   50.1998   38.0539 H       470      M_A    0.0000
   2676 H         131.9551   49.9157   37.2112 H       470      M_A    0.0000
   2677 C         131.5426   48.4819   38.6916 C.3     471      M_A    0.0000
   2678 C         132.8883   48.0726   39.1359 C.3     471      M_A    0.0000
   2679 H         130.8573   48.4006   39.4906 H       471      M_A    0.0000
   2680 H         131.2000   47.8345   37.9312 H       471      M_A    0.0000
   2681 H         133.5742   48.1568   38.3377 H       471      M_A    0.0000
   2682 H         133.2298   48.7182   39.8983 H       471      M_A    0.0000
   2683 C         132.9137   46.6550   39.6514 C.3     472      M_A    0.0000
   2684 C         134.2649   46.2362   40.0692 C.3     472      M_A    0.0000
   2685 H         132.2431   46.5760   40.4630 H       472      M_A    0.0000
   2686 H         132.5526   46.0117   38.8961 H       472      M_A    0.0000
   2687 H         134.8231   45.9243   39.2291 H       472      M_A    0.0000
   2688 H         134.7831   47.0537   40.4910 H       472      M_A    0.0000
   2689 C         134.2297   45.1118   41.0745 C.3     473      M_A    0.0000
   2690 C         134.3429   43.7871   40.4357 C.3     473      M_A    0.0000
   2691 H         135.0159   45.2488   41.7658 H       473      M_A    0.0000
   2692 H         133.3296   45.1736   41.6228 H       473      M_A    0.0000
   2693 H         134.0698   43.8515   39.4179 H       473      M_A    0.0000
   2694 H         135.3458   43.4579   40.4603 H       473      M_A    0.0000
   2695 C         133.4748   42.7523   41.1077 C.3     474      M_A    0.0000
   2696 C         133.9755   41.3809   40.8976 C.3     474      M_A    0.0000
   2697 H         133.4277   42.9663   42.1405 H       474      M_A    0.0000
   2698 H         132.4909   42.8395   40.7348 H       474      M_A    0.0000
   2699 H         133.6739   41.0266   39.9499 H       474      M_A    0.0000
   2700 H         135.0313   41.3765   40.9011 H       474      M_A    0.0000
   2701 C         133.4818   40.4239   41.9543 C.3     475      M_A    0.0000
   2702 C         132.6732   39.3300   41.3839 C.3     475      M_A    0.0000
   2703 H         134.3135   40.0281   42.4703 H       475      M_A    0.0000
   2704 H         132.9137   40.9626   42.6626 H       475      M_A    0.0000
   2705 H         132.9602   39.1513   40.3837 H       475      M_A    0.0000
   2706 H         132.8498   38.4346   41.9146 H       475      M_A    0.0000
   2707 C         131.1956   39.6329   41.4191 C.3     476      M_A    0.0000
   2708 C         130.3829   38.5114   40.9119 C.3     476      M_A    0.0000
   2709 H         130.9186   39.8608   42.4121 H       476      M_A    0.0000
   2710 H         131.0124   40.5008   40.8464 H       476      M_A    0.0000
   2711 H         129.6100   38.8758   40.2918 H       476      M_A    0.0000
   2712 H         130.9767   37.8752   40.3141 H       476      M_A    0.0000
   2713 C         129.7703   37.6994   42.0262 C.3     477      M_A    0.0000
   2714 C         129.0147   36.5377   41.5211 C.3     477      M_A    0.0000
   2715 H         130.5387   37.3774   42.6747 H       477      M_A    0.0000
   2716 H         129.1366   38.3245   42.5940 H       477      M_A    0.0000
   2717 H         128.0576   36.8422   41.1954 H       477      M_A    0.0000
   2718 H         129.5037   36.1251   40.6813 H       477      M_A    0.0000
   2719 C         128.8531   35.4623   42.5668 C.3     478      M_A    0.0000
   2720 C         128.5530   34.1458   41.9730 C.3     478      M_A    0.0000
   2721 H         129.7388   35.4080   43.1388 H       478      M_A    0.0000
   2722 H         128.0812   35.7450   43.2293 H       478      M_A    0.0000
   2723 H         127.5087   33.9948   41.9364 H       478      M_A    0.0000
   2724 H         128.8996   34.1108   40.9763 H       478      M_A    0.0000
   2725 C         129.1814   33.0131   42.7464 C.3     479      M_A    0.0000
   2726 C         130.1203   32.2276   41.9236 C.3     479      M_A    0.0000
   2727 H         129.6819   33.4111   43.5866 H       479      M_A    0.0000
   2728 H         128.4154   32.3885   43.1177 H       479      M_A    0.0000
   2729 H         129.6374   31.3693   41.5430 H       479      M_A    0.0000
   2730 H         130.4326   32.7947   41.0896 H       479      M_A    0.0000
   2731 C         131.3386   31.7954   42.7015 C.3     480      M_A    0.0000
   2732 C         131.9091   30.5344   42.1915 C.3     480      M_A    0.0000
   2733 H         132.0612   32.5639   42.6567 H       480      M_A    0.0000
   2734 H         131.0730   31.6878   43.7176 H       480      M_A    0.0000
   2735 H         131.4731   29.7121   42.6900 H       480      M_A    0.0000
   2736 H         131.6820   30.4227   41.1665 H       480      M_A    0.0000
   2737 C         133.4061   30.4717   42.3675 C.3     481      M_A    0.0000
   2738 C         133.7938   29.8027   43.6236 C.3     481      M_A    0.0000
   2739 H         133.8248   29.9633   41.5424 H       481      M_A    0.0000
   2740 H         133.7927   31.4540   42.3463 H       481      M_A    0.0000
   2741 H         133.0527   29.1059   43.9063 H       481      M_A    0.0000
   2742 H         134.6858   29.2559   43.4822 H       481      M_A    0.0000
   2743 C         133.9973   30.7814   44.7535 C.3     482      M_A    0.0000
   2744 C         134.3703   30.1111   46.0134 C.3     482      M_A    0.0000
   2745 H         134.7463   31.4716   44.4752 H       482      M_A    0.0000
   2746 H         133.1089   31.3358   44.8877 H       482      M_A    0.0000
   2747 H         135.3025   30.4720   46.3532 H       482      M_A    0.0000
   2748 H         133.6651   30.3368   46.7660 H       482      M_A    0.0000
   2749 C         134.4554   28.6127   45.8603 C.3     483      M_A    0.0000
   2750 C         135.3901   28.0043   46.8257 C.3     483      M_A    0.0000
   2751 H         133.4903   28.2027   45.9832 H       483      M_A    0.0000
   2752 H         134.7569   28.3879   44.8737 H       483      M_A    0.0000
   2753 H         136.3317   27.8539   46.3724 H       483      M_A    0.0000
   2754 H         135.5464   28.6584   47.6396 H       483      M_A    0.0000
   2755 C         134.8877   26.6831   47.3531 C.3     484      M_A    0.0000
   2756 C         135.6820   25.5442   46.8555 C.3     484      M_A    0.0000
   2757 H         134.9108   26.7070   48.4084 H       484      M_A    0.0000
   2758 H         133.8759   26.5680   47.0744 H       484      M_A    0.0000
   2759 H         136.2060   25.8223   45.9821 H       484      M_A    0.0000
   2760 H         136.4087   25.2697   47.5706 H       484      M_A    0.0000
   2761 C         134.8254   24.3413   46.5465 C.3     485      M_A    0.0000
   2762 C         134.8059   24.0242   45.1061 C.3     485      M_A    0.0000
   2763 H         135.1887   23.5151   47.0942 H       485      M_A    0.0000
   2764 H         133.8442   24.5251   46.8900 H       485      M_A    0.0000
   2765 H         135.7899   23.8691   44.7561 H       485      M_A    0.0000
   2766 H         134.2799   23.1238   44.9408 H       485      M_A    0.0000
   2767 C         134.1658   25.1185   44.2883 C.3     486      M_A    0.0000
   2768 C         133.1357   24.5996   43.3689 C.2     486      M_A    0.0000
   2769 H         133.7412   25.8291   44.9437 H       486      M_A    0.0000
   2770 H         134.9179   25.6203   43.7432 H       486      M_A    0.0000
   2771 H         133.5603   23.8890   42.7135 H       486      M_A    0.0000
   2772 H         132.3835   24.0978   43.9140 H       486      M_A    0.0000
   2773 C         117.1723   69.9222   33.2531 C.2     487      M_A    0.0000
   2774 C         117.3602   69.1892   32.1087 C.3     487      M_A    0.0000
   2775 H         117.0703   69.3226   34.0241 H       487      M_A    0.0000
   2776 H         116.3414   70.4415   33.1878 H       487      M_A    0.0000
   2777 H         116.9101   69.6247   31.3523 H       487      M_A    0.0000
   2778 H         118.3157   69.1527   31.8853 H       487      M_A    0.0000
   2779 C         116.8738   67.8786   32.2308 C.3     488      M_A    0.0000
   2780 C         115.6191   67.7376   31.6942 C.3     488      M_A    0.0000
   2781 H         117.5003   67.2659   31.7876 H       488      M_A    0.0000
   2782 H         116.8632   67.6322   33.1813 H       488      M_A    0.0000
   2783 H         114.9862   68.3283   32.1578 H       488      M_A    0.0000
   2784 H         115.6230   68.0130   30.7516 H       488      M_A    0.0000
   2785 C         115.1502   66.4176   31.7778 C.3     489      M_A    0.0000
   2786 C         114.9547   65.8560   30.5414 C.3     489      M_A    0.0000
   2787 H         115.7953   65.8845   32.2916 H       489      M_A    0.0000
   2788 H         114.3105   66.4117   32.2869 H       489      M_A    0.0000
   2789 H         114.0102   65.9307   30.2832 H       489      M_A    0.0000
   2790 H         115.4717   66.3443   29.8642 H       489      M_A    0.0000
   2791 C         115.3275   64.5036   30.5067 C.3     490      M_A    0.0000
   2792 C         116.5020   64.3054   29.8259 C.3     490      M_A    0.0000
   2793 H         115.4128   64.1751   31.4282 H       490      M_A    0.0000
   2794 H         114.6047   63.9867   30.0888 H       490      M_A    0.0000
   2795 H         116.4282   63.5128   29.2509 H       490      M_A    0.0000
   2796 H         116.6806   65.0679   29.2335 H       490      M_A    0.0000
   2797 C         117.5953   64.1376   30.6893 C.3     491      M_A    0.0000
   2798 C         118.1458   62.8845   30.5938 C.3     491      M_A    0.0000
   2799 H         118.2710   64.8190   30.4806 H       491      M_A    0.0000
   2800 H         117.3000   64.3063   31.6106 H       491      M_A    0.0000
   2801 H         117.6980   62.2717   31.2169 H       491      M_A    0.0000
   2802 H         118.0046   62.5226   29.6919 H       491      M_A    0.0000
   2803 C         119.5215   62.8855   30.8704 C.3     492      M_A    0.0000
   2804 C         119.9697   61.6562   31.2828 C.3     492      M_A    0.0000
   2805 H         120.0062   63.1677   30.0644 H       492      M_A    0.0000
   2806 H         119.7051   63.5597   31.5605 H       492      M_A    0.0000
   2807 H         120.9102   61.5373   31.0263 H       492      M_A    0.0000
   2808 H         119.9349   61.5963   32.2624 H       492      M_A    0.0000
   2809 C         119.2160   60.6052   30.7383 C.3     493      M_A    0.0000
   2810 C         119.5962   59.3828   31.2315 C.3     493      M_A    0.0000
   2811 H         118.2661   60.7648   30.9294 H       493      M_A    0.0000
   2812 H         119.3133   60.6191   29.7612 H       493      M_A    0.0000
   2813 H         120.3181   59.0075   30.6816 H       493      M_A    0.0000
   2814 H         119.9566   59.4833   32.1395 H       493      M_A    0.0000
   2815 C         118.5320   58.4688   31.2659 C.3     494      M_A    0.0000
   2816 C         118.9419   57.1838   31.0154 C.3     494      M_A    0.0000
   2817 H         118.1001   58.5189   32.1464 H       494      M_A    0.0000
   2818 H         117.8586   58.7422   30.6055 H       494      M_A    0.0000
   2819 H         119.9064   57.0999   31.1800 H       494      M_A    0.0000
   2820 H         118.4957   56.5620   31.6308 H       494      M_A    0.0000
   2821 C         118.6719   56.7869   29.6968 C.3     495      M_A    0.0000
   2822 C         118.7466   55.4262   29.5378 C.3     495      M_A    0.0000
   2823 H         117.7777   57.1065   29.4469 H       495      M_A    0.0000
   2824 H         119.3086   57.2316   29.0958 H       495      M_A    0.0000
   2825 H         119.6860   55.1433   29.4943 H       495      M_A    0.0000
   2826 H         118.3517   54.9742   30.3150 H       495      M_A    0.0000
   2827 C         118.0886   54.9895   28.3779 C.3     496      M_A    0.0000
   2828 C         118.3284   53.6652   28.1114 C.3     496      M_A    0.0000
   2829 H         117.1244   55.1422   28.4845 H       496      M_A    0.0000
   2830 H         118.3799   55.5434   27.6211 H       496      M_A    0.0000
   2831 H         117.7351   53.3533   27.3938 H       496      M_A    0.0000
   2832 H         119.2482   53.5481   27.7878 H       496      M_A    0.0000
   2833 C         118.1392   52.8529   29.2399 C.3     497      M_A    0.0000
   2834 C         119.0628   51.8410   29.3129 C.3     497      M_A    0.0000
   2835 H         118.1890   53.4130   30.0450 H       497      M_A    0.0000
   2836 H         117.2316   52.4790   29.2121 H       497      M_A    0.0000
   2837 H         118.6861   51.0139   28.9412 H       497      M_A    0.0000
   2838 H         119.8490   52.0628   28.7678 H       497      M_A    0.0000
   2839 C         119.4801   51.5960   30.6301 C.3     498      M_A    0.0000
   2840 C         120.3075   50.5053   30.7189 C.3     498      M_A    0.0000
   2841 H         119.9384   52.3950   30.9707 H       498      M_A    0.0000
   2842 H         118.6871   51.4639   31.1940 H       498      M_A    0.0000
   2843 H         119.7764   49.6793   30.7251 H       498      M_A    0.0000
   2844 H         120.8905   50.4597   29.9300 H       498      M_A    0.0000
   2845 C         121.1076   50.5372   31.8713 C.3     499      M_A    0.0000
   2846 C         122.3724   51.0021   31.6134 C.3     499      M_A    0.0000
   2847 H         120.6712   51.1040   32.5440 H       499      M_A    0.0000
   2848 H         121.1523   49.6326   32.2507 H       499      M_A    0.0000
   2849 H         123.0352   50.4579   32.0918 H       499      M_A    0.0000
   2850 H         122.5743   50.9155   30.6563 H       499      M_A    0.0000
   2851 C         122.5326   52.3444   31.9898 C.3     500      M_A    0.0000
   2852 C         123.7479   52.5767   32.5825 C.3     500      M_A    0.0000
   2853 H         122.4325   52.9105   31.1937 H       500      M_A    0.0000
   2854 H         121.8063   52.5899   32.6035 H       500      M_A    0.0000
   2855 H         123.7216   52.2997   33.5243 H       500      M_A    0.0000
   2856 H         124.4430   52.0354   32.1487 H       500      M_A    0.0000
   2857 C         124.1211   53.9278   32.5186 C.3     501      M_A    0.0000
   2858 C         125.3151   54.1678   33.1503 C.3     501      M_A    0.0000
   2859 H         124.1792   54.1960   31.5757 H       501      M_A    0.0000
   2860 H         123.4108   54.4719   32.9233 H       501      M_A    0.0000
   2861 H         125.9408   54.6054   32.5327 H       501      M_A    0.0000
   2862 H         125.1806   54.7867   33.9008 H       501      M_A    0.0000
   2863 C         125.9064   52.9911   33.6348 C.3     502      M_A    0.0000
   2864 C         127.2625   53.1196   33.7979 C.3     502      M_A    0.0000
   2865 H         125.4854   52.7541   34.4897 H       502      M_A    0.0000
   2866 H         125.7102   52.2583   33.0111 H       502      M_A    0.0000
   2867 H         127.5029   54.0678   33.8844 H       502      M_A    0.0000
   2868 H         127.5448   52.6802   34.6295 H       502      M_A    0.0000
   2869 C         127.9817   52.5665   32.7275 C.3     503      M_A    0.0000
   2870 C         129.0015   53.3833   32.3090 C.3     503      M_A    0.0000
   2871 H         128.3402   51.6949   33.0037 H       503      M_A    0.0000
   2872 H         127.3622   52.3942   31.9853 H       503      M_A    0.0000
   2873 H         129.6052   52.8895   31.7124 H       503      M_A    0.0000
   2874 H         128.6402   54.1326   31.7872 H       503      M_A    0.0000
   2875 C         129.7460   53.8968   33.3819 C.3     504      M_A    0.0000
   2876 C         130.9504   53.2573   33.5322 C.3     504      M_A    0.0000
   2877 H         129.8905   54.8571   33.2360 H       504      M_A    0.0000
   2878 H         129.2155   53.8131   34.2040 H       504      M_A    0.0000
   2879 H         131.1985   52.8057   32.6962 H       504      M_A    0.0000
   2880 H         131.6581   53.9117   33.7199 H       504      M_A    0.0000
   2881 C         130.9241   52.3102   34.5673 C.3     505      M_A    0.0000
   2882 C         132.0763   52.3217   35.3120 C.3     505      M_A    0.0000
   2883 H         130.1494   52.4917   35.1428 H       505      M_A    0.0000
   2884 H         130.7837   51.4196   34.1780 H       505      M_A    0.0000
   2885 H         132.8344   52.0224   34.7641 H       505      M_A    0.0000
   2886 H         132.2814   53.2376   35.6008 H       505      M_A    0.0000
   2887 C         131.9851   51.4997   36.4456 C.3     506      M_A    0.0000
   2888 C         132.3573   52.1532   37.5930 C.2     506      M_A    0.0000
   2889 H         131.0620   51.1747   36.5275 H       506      M_A    0.0000
   2890 H         132.5514   50.7090   36.3096 H       506      M_A    0.0000
   2891 H         133.2804   52.4782   37.5111 H       506      M_A    0.0000
   2892 H         131.7910   52.9439   37.7290 H       506      M_A    0.0000
   2893 C         127.1522   89.3584   34.8133 C.2     507      M_A    0.0000
   2894 C         127.8705   88.7378   33.7719 C.3     507      M_A    0.0000
   2895 H         127.1136   88.7502   35.6170 H       507      M_A    0.0000
   2896 H         126.1989   89.5208   34.5269 H       507      M_A    0.0000
   2897 H         127.3384   88.7734   32.9159 H       507      M_A    0.0000
   2898 H         128.7300   89.2366   33.5997 H       507      M_A    0.0000
   2899 C         128.1829   87.3624   34.0680 C.3     508      M_A    0.0000
   2900 C         127.2471   86.4699   33.5083 C.3     508      M_A    0.0000
   2901 H         129.1073   87.1569   33.7207 H       508      M_A    0.0000
   2902 H         128.2169   87.2449   35.0691 H       508      M_A    0.0000
   2903 H         126.3592   86.5602   33.9781 H       508      M_A    0.0000
   2904 H         127.0868   86.6995   32.5394 H       508      M_A    0.0000
   2905 C         127.6810   85.0983   33.5949 C.3     509      M_A    0.0000
   2906 C         126.7879   84.2143   32.9573 C.3     509      M_A    0.0000
   2907 H         128.5980   85.0207   33.1822 H       509      M_A    0.0000
   2908 H         127.7791   84.8491   34.5673 H       509      M_A    0.0000
   2909 H         125.8524   84.3565   33.3065 H       509      M_A    0.0000
   2910 H         126.7598   84.4055   31.9675 H       509      M_A    0.0000
   2911 C         127.1523   82.8339   33.1538 C.3     510      M_A    0.0000
   2912 C         126.4788   81.9722   32.2653 C.3     510      M_A    0.0000
   2913 H         128.1497   82.7410   33.0362 H       510      M_A    0.0000
   2914 H         126.9478   82.5762   34.1072 H       510      M_A    0.0000
   2915 H         125.4861   82.1472   32.2996 H       510      M_A    0.0000
   2916 H         126.7724   82.1543   31.3177 H       510      M_A    0.0000
   2917 C         126.7163   80.5829   32.5663 C.3     511      M_A    0.0000
   2918 C         125.9140   79.7235   31.7897 C.3     511      M_A    0.0000
   2919 H         127.6919   80.3790   32.4117 H       511      M_A    0.0000
   2920 H         126.5400   80.4281   33.5473 H       511      M_A    0.0000
   2921 H         124.9400   79.9546   31.9127 H       511      M_A    0.0000
   2922 H         126.1200   79.8492   30.8104 H       511      M_A    0.0000
   2923 C         126.1093   78.3371   32.1313 C.3     512      M_A    0.0000
   2924 C         125.3261   77.4760   31.3372 C.3     512      M_A    0.0000
   2925 H         127.0866   78.1109   32.0263 H       512      M_A    0.0000
   2926 H         125.8852   78.2078   33.1062 H       512      M_A    0.0000
   2927 H         125.5842   76.5164   31.5095 H       512      M_A    0.0000
   2928 H         124.3531   77.5637   31.5881 H       512      M_A    0.0000
   2929 C         125.4694   77.7500   29.9296 C.3     513      M_A    0.0000
   2930 C         124.6947   76.8818   29.1349 C.3     513      M_A    0.0000
   2931 H         125.2035   78.7074   29.7560 H       513      M_A    0.0000
   2932 H         126.4434   77.6703   29.6804 H       513      M_A    0.0000
   2933 H         123.7162   77.1077   29.2288 H       513      M_A    0.0000
   2934 H         124.9279   77.0036   28.1613 H       513      M_A    0.0000
   2935 C         124.8882   75.4983   29.4894 C.3     514      M_A    0.0000
   2936 C         124.3480   74.6204   28.5288 C.3     514      M_A    0.0000
   2937 H         125.8759   75.3259   29.5989 H       514      M_A    0.0000
   2938 H         124.4635   75.3307   30.3887 H       514      M_A    0.0000
   2939 H         124.2920   75.0801   27.6328 H       514      M_A    0.0000
   2940 H         124.9549   73.8239   28.4082 H       514      M_A    0.0000
   2941 C         123.0346   74.1526   28.8938 C.3     515      M_A    0.0000
   2942 C         122.3230   73.6435   27.7893 C.3     515      M_A    0.0000
   2943 H         123.1282   73.4412   29.6026 H       515      M_A    0.0000
   2944 H         122.5233   74.9140   29.3134 H       515      M_A    0.0000
   2945 H         121.3388   73.8383   27.8924 H       515      M_A    0.0000
   2946 H         122.6223   74.1036   26.9432 H       515      M_A    0.0000
   2947 C         122.5013   72.2219   27.6330 C.3     516      M_A    0.0000
   2948 C         121.9381   71.7418   26.4339 C.3     516      M_A    0.0000
   2949 H         123.4876   72.0131   27.6597 H       516      M_A    0.0000
   2950 H         122.0845   71.7532   28.4228 H       516      M_A    0.0000
   2951 H         121.8213   72.4998   25.7789 H       516      M_A    0.0000
   2952 H         122.5615   71.0779   26.0005 H       516      M_A    0.0000
   2953 C         120.6603   71.1096   26.6454 C.3     517      M_A    0.0000
   2954 C         119.6401   71.6944   25.8691 C.3     517      M_A    0.0000
   2955 H         120.7427   70.1286   26.4258 H       517      M_A    0.0000
   2956 H         120.4266   71.1685   27.6247 H       517      M_A    0.0000
   2957 H         120.0083   71.9845   24.9761 H       517      M_A    0.0000
   2958 H         118.9187   71.0159   25.6783 H       517      M_A    0.0000
   2959 C         119.0451   72.8349   26.5189 C.3     518      M_A    0.0000
   2960 C         117.7102   72.5956   26.9010 C.3     518      M_A    0.0000
   2961 H         119.5988   73.0739   27.3274 H       518      M_A    0.0000
   2962 H         119.0895   73.6251   25.8937 H       518      M_A    0.0000
   2963 H         117.1410   73.4017   26.6926 H       518      M_A    0.0000
   2964 H         117.3305   71.8275   26.3689 H       518      M_A    0.0000
   2965 C         117.5899   72.2924   28.3049 C.3     519      M_A    0.0000
   2966 C         117.2811   70.9368   28.5338 C.3     519      M_A    0.0000
   2967 H         118.4549   72.5324   28.7646 H       519      M_A    0.0000
   2968 H         116.8760   72.8820   28.7048 H       519      M_A    0.0000
   2969 H         116.2877   70.8263   28.6684 H       519      M_A    0.0000
   2970 H         117.5271   70.3849   27.7263 H       519      M_A    0.0000
   2971 C         117.9676   70.4071   29.6850 C.3     520      M_A    0.0000
   2972 C         117.1279   70.3174   30.8130 C.2     520      M_A    0.0000
   2973 H         118.3349   69.4966   29.4541 H       520      M_A    0.0000
   2974 H         118.7604   70.9958   29.8901 H       520      M_A    0.0000
   2975 H         116.7606   71.2279   31.0440 H       520      M_A    0.0000
   2976 H         116.3351   69.7287   30.6080 H       520      M_A    0.0000
   2977 C         108.3651   89.4918   43.4838 C.2     521      M_A    0.0000
   2978 C         107.9059   88.3723   42.2706 C.3     521      M_A    0.0000
   2979 H         108.2057   88.9969   44.5947 H       521      M_A    0.0000
   2980 H         107.6463   90.4843   43.4340 H       521      M_A    0.0000
   2981 H         107.8349   88.9359   41.1836 H       521      M_A    0.0000
   2982 H         108.7598   87.4990   42.1594 H       521      M_A    0.0000
   2983 C         106.3640   87.6141   42.6157 C.3     522      M_A    0.0000
   2984 C         106.1421   86.1626   41.7327 C.3     522      M_A    0.0000
   2985 H         106.2948   87.3889   43.8193 H       522      M_A    0.0000
   2986 H         105.4660   88.4073   42.3536 H       522      M_A    0.0000
   2987 H         106.2027   86.3892   40.5289 H       522      M_A    0.0000
   2988 H         107.0448   85.3727   41.9883 H       522      M_A    0.0000
   2989 C         104.6053   85.3981   42.0868 C.3     523      M_A    0.0000
   2990 C         104.3992   83.9277   41.2316 C.3     523      M_A    0.0000
   2991 H         104.5334   85.1959   43.2944 H       523      M_A    0.0000
   2992 H         103.7016   86.1783   41.8059 H       523      M_A    0.0000
   2993 H         103.3917   83.3498   41.6256 H       523      M_A    0.0000
   2994 H         104.2307   84.1553   40.0383 H       523      M_A    0.0000
   2995 C         105.7732   82.8552   41.4137 C.3     524      M_A    0.0000
   2996 C         105.7156   81.5351   40.3229 C.3     524      M_A    0.0000
   2997 H         106.8028   83.4990   41.2409 H       524      M_A    0.0000
   2998 H         105.8041   82.4450   42.5691 H       524      M_A    0.0000
   2999 H         106.0408   80.5010   40.8966 H       524      M_A    0.0000
   3000 H         104.5681   81.3700   39.9228 H       524      M_A    0.0000
   3001 C         106.7676   81.7691   38.9408 C.3     525      M_A    0.0000
   3002 C         106.8671   80.3703   37.9563 C.3     525      M_A    0.0000
   3003 H         106.3516   82.7173   38.2835 H       525      M_A    0.0000
   3004 H         107.8837   82.0813   39.3420 H       525      M_A    0.0000
   3005 H         107.6836   79.5839   38.4243 H       525      M_A    0.0000
   3006 H         105.7872   79.7892   37.9409 H       525      M_A    0.0000
   3007 C         107.3281   80.7493   36.3085 C.3     526      M_A    0.0000
   3008 C         107.6866   79.3447   35.3951 C.3     526      M_A    0.0000
   3009 H         106.4171   81.3754   35.7772 H       526      M_A    0.0000
   3010 H         108.3013   81.4954   36.3320 H       526      M_A    0.0000
   3011 H         107.1450   78.3662   35.8984 H       526      M_A    0.0000
   3012 H         107.2330   79.4536   34.2607 H       526      M_A    0.0000
   3013 C         109.4098   79.0439   35.2879 C.3     527      M_A    0.0000
   3014 C         109.7650   77.5973   34.4410 C.3     527      M_A    0.0000
   3015 H         109.9439   79.9982   34.7327 H       527      M_A    0.0000
   3016 H         109.8732   78.9918   36.4222 H       527      M_A    0.0000
   3017 H         109.5133   76.6252   35.1451 H       527      M_A    0.0000
   3018 H         109.0525   77.5062   33.4469 H       527      M_A    0.0000
   3019 C         111.4432   77.5145   33.9427 C.3     528      M_A    0.0000
   3020 C         111.7115   76.2998   32.7644 C.3     528      M_A    0.0000
   3021 H         111.7794   78.6088   33.5026 H       528      M_A    0.0000
   3022 H         112.1389   77.3032   34.9304 H       528      M_A    0.0000
   3023 H         111.7746   76.8035   31.6479 H       528      M_A    0.0000
   3024 H         112.7897   75.7506   32.9645 H       528      M_A    0.0000
   3025 C         110.4495   75.0837   32.7648 C.3     529      M_A    0.0000
   3026 C         110.1856   74.4211   31.2069 C.3     529      M_A    0.0000
   3027 H         110.7565   74.1956   33.5530 H       529      M_A    0.0000
   3028 H         109.4147   75.5880   33.1881 H       529      M_A    0.0000
   3029 H         109.9590   75.3178   30.4014 H       529      M_A    0.0000
   3030 H         111.1964   73.8455   30.8180 H       529      M_A    0.0000
   3031 C         108.8472   73.2899   31.1842 C.3     530      M_A    0.0000
   3032 C         108.3741   72.8756   29.5903 C.3     530      M_A    0.0000
   3033 H         109.1715   72.2813   31.8021 H       530      M_A    0.0000
   3034 H         107.9014   73.7843   31.7885 H       530      M_A    0.0000
   3035 H         107.8306   73.8335   29.0506 H       530      M_A    0.0000
   3036 H         109.3617   72.6047   28.9154 H       530      M_A    0.0000
   3037 C         107.2755   71.5105   29.5572 C.3     531      M_A    0.0000
   3038 C         107.5262   70.5082   28.1903 C.3     531      M_A    0.0000
   3039 H         107.4210   70.8609   30.5873 H       531      M_A    0.0000
   3040 H         106.1231   71.9302   29.5653 H       531      M_A    0.0000
   3041 H         106.6488   69.6535   28.1290 H       531      M_A    0.0000
   3042 H         107.4443   71.1714   27.1618 H       531      M_A    0.0000
   3043 C         109.0877   69.7133   28.2270 C.3     532      M_A    0.0000
   3044 C         109.6993   69.4105   26.6553 C.3     532      M_A    0.0000
   3045 H         109.8733   70.4140   28.8562 H       532      M_A    0.0000
   3046 H         108.9807   68.6603   28.8467 H       532      M_A    0.0000
   3047 H         108.9789   68.6081   26.0711 H       532      M_A    0.0000
   3048 H         109.6863   70.4426   25.9929 H       532      M_A    0.0000
   3049 C         111.3346   68.7813   26.6888 C.3     533      M_A    0.0000
   3050 C         112.4670   69.9449   27.2362 C.3     533      M_A    0.0000
   3051 H         111.3631   67.7929   27.4144 H       533      M_A    0.0000
   3052 H         111.6346   68.4000   25.5624 H       533      M_A    0.0000
   3053 H         112.2863   70.1801   28.4263 H       533      M_A    0.0000
   3054 H         113.6066   69.5034   27.1336 H       533      M_A    0.0000
   3055 C         112.3607   71.4477   26.3408 C.3     534      M_A    0.0000
   3056 C         112.9575   72.7809   27.2365 C.3     534      M_A    0.0000
   3057 H         112.9887   71.3294   25.2940 H       534      M_A    0.0000
   3058 H         111.1901   71.6404   26.0295 H       534      M_A    0.0000
   3059 H         113.1912   73.7216   26.4851 H       534      M_A    0.0000
   3060 H         112.1075   73.1678   28.0314 H       534      M_A    0.0000
   3061 C         114.4191   72.3868   28.1196 C.3     535      M_A    0.0000
   3062 C         114.9318   73.6703   29.1324 C.3     535      M_A    0.0000
   3063 H         114.2174   71.3785   28.7882 H       535      M_A    0.0000
   3064 H         115.3026   72.1060   27.3167 H       535      M_A    0.0000
   3065 H         115.2189   74.6516   28.4549 H       535      M_A    0.0000
   3066 H         114.0174   74.0107   29.8755 H       535      M_A    0.0000
   3067 C         116.3198   73.2322   30.1087 C.3     536      M_A    0.0000
   3068 C         115.9040   72.9782   31.7514 C.3     536      M_A    0.0000
   3069 H         116.8273   72.2181   29.6417 H       536      M_A    0.0000
   3070 H         117.1613   74.1200   30.0203 H       536      M_A    0.0000
   3071 H         115.8767   74.0491   32.3487 H       536      M_A    0.0000
   3072 H         114.7768   72.5016   31.8311 H       536      M_A    0.0000
   3073 C         117.0289   71.9072   32.5632 C.3     537      M_A    0.0000
   3074 C         116.2599   70.5071   33.1833 C.2     537      M_A    0.0000
   3075 H         117.9107   71.5875   31.7731 H       537      M_A    0.0000
   3076 H         117.5762   72.5235   33.4714 H       537      M_A    0.0000
   3077 H         115.3780   70.8267   33.9734 H       537      M_A    0.0000
   3078 H         115.7126   69.8908   32.2751 H       537      M_A    0.0000
   3079 C          28.2678   58.7511   43.4864 C.2     538      M_A    0.0000
   3080 C          29.1509   59.5199   44.1129 C.3     538      M_A    0.0000
   3081 H          28.3225   57.8598   43.8122 H       538      M_A    0.0000
   3082 H          28.4679   58.7150   42.5578 H       538      M_A    0.0000
   3083 H          29.2720   60.3329   43.6354 H       538      M_A    0.0000
   3084 H          28.8251   59.7552   44.9743 H       538      M_A    0.0000
   3085 C          30.3567   58.9104   44.2524 C.3     539      M_A    0.0000
   3086 C          30.5470   57.9580   43.3467 C.3     539      M_A    0.0000
   3087 H          31.0413   59.5663   44.1844 H       539      M_A    0.0000
   3088 H          30.4155   58.5442   45.1276 H       539      M_A    0.0000
   3089 H          29.9061   57.2656   43.4621 H       539      M_A    0.0000
   3090 H          30.4159   58.3084   42.4728 H       539      M_A    0.0000
   3091 C          31.7917   57.4191   43.4200 C.3     540      M_A    0.0000
   3092 C          31.9408   56.3836   42.6021 C.3     540      M_A    0.0000
   3093 H          32.4298   58.0925   43.2130 H       540      M_A    0.0000
   3094 H          31.9576   57.1523   44.3172 H       540      M_A    0.0000
   3095 H          31.4177   55.6503   42.9059 H       540      M_A    0.0000
   3096 H          31.6222   56.6052   41.7343 H       540      M_A    0.0000
   3097 C          33.2362   55.9868   42.5048 C.3     541      M_A    0.0000
   3098 C          33.3557   54.7946   41.9321 C.3     541      M_A    0.0000
   3099 H          33.7193   56.6371   42.0076 H       541      M_A    0.0000
   3100 H          33.6177   55.9699   43.3753 H       541      M_A    0.0000
   3101 H          32.9922   54.1231   42.4983 H       541      M_A    0.0000
   3102 H          32.8563   54.7698   41.1237 H       541      M_A    0.0000
   3103 C          34.6489   54.4828   41.6576 C.3     542      M_A    0.0000
   3104 C          34.8723   54.3647   40.3538 C.3     542      M_A    0.0000
   3105 H          35.2110   55.1556   42.0249 H       542      M_A    0.0000
   3106 H          34.8691   53.6712   42.1007 H       542      M_A    0.0000
   3107 H          34.3956   53.6187   40.0077 H       542      M_A    0.0000
   3108 H          34.5474   55.1322   39.8967 H       542      M_A    0.0000
   3109 C          36.1916   54.2116   40.0694 C.3     543      M_A    0.0000
   3110 C          36.3889   53.5142   38.9566 C.3     543      M_A    0.0000
   3111 H          36.5897   55.0711   39.9902 H       543      M_A    0.0000
   3112 H          36.6153   53.7811   40.8033 H       543      M_A    0.0000
   3113 H          36.3718   52.5832   39.1481 H       543      M_A    0.0000
   3114 H          35.6849   53.6789   38.3396 H       543      M_A    0.0000
   3115 C          37.5720   53.8171   38.3622 C.3     544      M_A    0.0000
   3116 C          38.5445   52.9890   38.7256 C.3     544      M_A    0.0000
   3117 H          37.4567   53.7905   37.4190 H       544      M_A    0.0000
   3118 H          37.8059   54.7115   38.5834 H       544      M_A    0.0000
   3119 H          38.8649   53.2218   39.5897 H       544      M_A    0.0000
   3120 H          38.2103   52.1014   38.7883 H       544      M_A    0.0000
   3121 C          39.5860   53.0041   37.8538 C.3     545      M_A    0.0000
   3122 C          40.7051   52.5411   38.3987 C.3     545      M_A    0.0000
   3123 H          39.3554   52.4847   37.0919 H       545      M_A    0.0000
   3124 H          39.7166   53.8945   37.5478 H       545      M_A    0.0000
   3125 H          41.3497   52.3677   37.7219 H       545      M_A    0.0000
   3126 H          41.0830   53.1968   38.9739 H       545      M_A    0.0000
   3127 C          40.4988   51.4020   39.1091 C.3     546      M_A    0.0000
   3128 C          41.2802   50.4076   38.7039 C.3     546      M_A    0.0000
   3129 H          40.6525   51.5829   40.0296 H       546      M_A    0.0000
   3130 H          39.5852   51.1521   39.0289 H       546      M_A    0.0000
   3131 H          40.9116   49.9984   37.9291 H       546      M_A    0.0000
   3132 H          42.1336   50.7444   38.4549 H       546      M_A    0.0000
   3133 C          41.4463   49.4599   39.6626 C.3     547      M_A    0.0000
   3134 C          41.3967   48.2288   39.1673 C.3     547      M_A    0.0000
   3135 H          42.2807   49.6040   40.0946 H       547      M_A    0.0000
   3136 H          40.7733   49.5723   40.3244 H       547      M_A    0.0000
   3137 H          40.8872   47.6671   39.7404 H       547      M_A    0.0000
   3138 H          40.9543   48.2336   38.3259 H       547      M_A    0.0000
   3139 C          42.6324   47.6874   39.0091 C.3     548      M_A    0.0000
   3140 C          42.8242   47.2215   37.7804 C.3     548      M_A    0.0000
   3141 H          43.2847   48.3481   39.2128 H       548      M_A    0.0000
   3142 H          42.7442   46.9886   39.6437 H       548      M_A    0.0000
   3143 H          42.0991   46.6616   37.5272 H       548      M_A    0.0000
   3144 H          42.8440   47.9404   37.1587 H       548      M_A    0.0000
   3145 C          43.9803   46.5168   37.6717 C.3     549      M_A    0.0000
   3146 C          43.8293   45.2450   38.0229 C.3     549      M_A    0.0000
   3147 H          44.2900   46.5727   36.7748 H       549      M_A    0.0000
   3148 H          44.6424   46.9286   38.2153 H       549      M_A    0.0000
   3149 H          44.6600   44.7877   37.9566 H       549      M_A    0.0000
   3150 H          43.5581   45.1879   38.9322 H       549      M_A    0.0000
   3151 C          42.9135   44.6033   37.2518 C.3     550      M_A    0.0000
   3152 C          43.3772   43.4563   36.7691 C.3     550      M_A    0.0000
   3153 H          42.1323   44.4466   37.7702 H       550      M_A    0.0000
   3154 H          42.6574   45.1772   36.5387 H       550      M_A    0.0000
   3155 H          43.9557   43.6225   36.0333 H       550      M_A    0.0000
   3156 H          43.8963   43.0109   37.4292 H       550      M_A    0.0000
   3157 C          42.3801   42.6278   36.3636 C.3     551      M_A    0.0000
   3158 C          42.3962   42.4257   35.0512 C.3     551      M_A    0.0000
   3159 H          42.4647   41.7994   36.8221 H       551      M_A    0.0000
   3160 H          41.5461   43.0010   36.6258 H       551      M_A    0.0000
   3161 H          43.1286   41.8671   34.8164 H       551      M_A    0.0000
   3162 H          41.6072   41.9688   34.7822 H       551      M_A    0.0000
   3163 C          42.4895   43.5868   34.3526 C.3     552      M_A    0.0000
   3164 C          43.1452   43.4341   33.2079 C.3     552      M_A    0.0000
   3165 H          41.6133   43.9149   34.1851 H       552      M_A    0.0000
   3166 H          42.9251   44.2357   34.8937 H       552      M_A    0.0000
   3167 H          43.1460   42.5186   32.9524 H       552      M_A    0.0000
   3168 H          42.7043   43.9109   32.5137 H       552      M_A    0.0000
   3169 C          44.4300   43.8672   33.2888 C.3     553      M_A    0.0000
   3170 C          44.5926   45.0658   32.7405 C.3     553      M_A    0.0000
   3171 H          44.6889   43.8893   34.2032 H       553      M_A    0.0000
   3172 H          44.9945   43.2336   32.8605 H       553      M_A    0.0000
   3173 H          44.9151   44.9761   31.8508 H       553      M_A    0.0000
   3174 H          43.7565   45.5144   32.6838 H       553      M_A    0.0000
   3175 C          45.4584   45.8406   33.4440 C.3     554      M_A    0.0000
   3176 C          45.0068   47.0787   33.6079 C.3     554      M_A    0.0000
   3177 H          45.6139   45.4358   34.2899 H       554      M_A    0.0000
   3178 H          46.2938   45.8557   32.9909 H       554      M_A    0.0000
   3179 H          45.3304   47.6385   32.9113 H       554      M_A    0.0000
   3180 H          44.0581   47.0901   33.5488 H       554      M_A    0.0000
   3181 C          45.3774   47.6078   34.8027 C.3     555      M_A    0.0000
   3182 C          45.0673   48.8954   34.9008 C.3     555      M_A    0.0000
   3183 H          44.9558   47.1171   35.4992 H       555      M_A    0.0000
   3184 H          46.3140   47.4888   34.9133 H       555      M_A    0.0000
   3185 H          45.2909   49.3468   34.0947 H       555      M_A    0.0000
   3186 H          44.1297   48.9967   35.0194 H       555      M_A    0.0000
   3187 C          45.7074   49.5018   35.9341 C.3     556      M_A    0.0000
   3188 C          44.8719   50.1690   36.7217 C.3     556      M_A    0.0000
   3189 H          46.1719   48.8419   36.4363 H       556      M_A    0.0000
   3190 H          46.3655   50.0912   35.5833 H       556      M_A    0.0000
   3191 H          44.2863   50.7034   36.1973 H       556      M_A    0.0000
   3192 H          44.3256   49.5609   37.2068 H       556      M_A    0.0000
   3193 C          45.5245   50.9703   37.6031 C.3     557      M_A    0.0000
   3194 C          45.3311   50.5957   38.8624 C.3     557      M_A    0.0000
   3195 H          46.4527   50.9587   37.3985 H       557      M_A    0.0000
   3196 H          45.2290   51.8654   37.4803 H       557      M_A    0.0000
   3197 H          44.6350   51.1119   39.2528 H       557      M_A    0.0000
   3198 H          45.0482   49.6887   38.8929 H       557      M_A    0.0000
   3199 C          46.4522   50.7302   39.6174 C.3     558      M_A    0.0000
   3200 C          46.1737   50.9705   40.8935 C.3     558      M_A    0.0000
   3201 H          46.9703   49.9370   39.5407 H       558      M_A    0.0000
   3202 H          46.9792   51.4361   39.2603 H       558      M_A    0.0000
   3203 H          46.2162   51.9043   41.0661 H       558      M_A    0.0000
   3204 H          45.2850   50.6967   41.0903 H       558      M_A    0.0000
   3205 C          47.0257   50.3303   41.7357 C.3     559      M_A    0.0000
   3206 C          48.1391   51.0226   41.9472 C.3     559      M_A    0.0000
   3207 H          46.5797   50.1707   42.5598 H       559      M_A    0.0000
   3208 H          47.2361   49.4786   41.3697 H       559      M_A    0.0000
   3209 H          47.9985   51.9386   41.7357 H       559      M_A    0.0000
   3210 H          48.3745   50.9880   42.8675 H       559      M_A    0.0000
   3211 C          49.1817   50.5583   41.2108 C.3     560      M_A    0.0000
   3212 C          50.2590   50.3287   41.9526 C.3     560      M_A    0.0000
   3213 H          48.9137   49.7601   40.7695 H       560      M_A    0.0000
   3214 H          49.3829   51.1916   40.5311 H       560      M_A    0.0000
   3215 H          51.0334   50.6648   41.5155 H       560      M_A    0.0000
   3216 H          50.1899   50.7917   42.7798 H       560      M_A    0.0000
   3217 C          50.4381   49.0061   42.2048 C.3     561      M_A    0.0000
   3218 C          51.6592   48.5935   41.8851 C.3     561      M_A    0.0000
   3219 H          50.2703   48.8445   43.1264 H       561      M_A    0.0000
   3220 H          49.7889   48.5107   41.7183 H       561      M_A    0.0000
   3221 H          51.9685   49.0568   41.1149 H       561      M_A    0.0000
   3222 H          52.2662   48.7965   42.5878 H       561      M_A    0.0000
   3223 C          51.7037   47.2582   41.6402 C.3     562      M_A    0.0000
   3224 C          52.9263   46.7604   41.7854 C.3     562      M_A    0.0000
   3225 H          51.1007   46.8184   42.2289 H       562      M_A    0.0000
   3226 H          51.3893   47.0979   40.7576 H       562      M_A    0.0000
   3227 H          53.5749   47.4337   41.6136 H       562      M_A    0.0000
   3228 H          53.0583   46.4769   42.6831 H       562      M_A    0.0000
   3229 C          53.1561   45.7095   40.9561 C.3     563      M_A    0.0000
   3230 C          53.0444   44.5424   41.5799 C.2     563      M_A    0.0000
   3231 H          52.5428   45.7515   40.2311 H       563      M_A    0.0000
   3232 H          54.0260   45.7978   40.5833 H       563      M_A    0.0000
   3233 H          53.6577   44.5004   42.3049 H       563      M_A    0.0000
   3234 H          52.1745   44.4540   41.9527 H       563      M_A    0.0000
   3235 C          20.5177   71.2714   40.1906 C.2     564      M_A    0.0000
   3236 C          20.6783   72.7956   40.1930 C.3     564      M_A    0.0000
   3237 H          21.0872   70.8319   41.0188 H       564      M_A    0.0000
   3238 H          20.9316   70.8510   39.2656 H       564      M_A    0.0000
   3239 H          20.2612   73.0481   39.3829 H       564      M_A    0.0000
   3240 H          20.1501   73.1504   40.8924 H       564      M_A    0.0000
   3241 C          21.9052   73.3589   40.2451 C.3     565      M_A    0.0000
   3242 C          22.8672   72.4865   40.0036 C.3     565      M_A    0.0000
   3243 H          21.9432   74.0653   39.6177 H       565      M_A    0.0000
   3244 H          22.0263   73.7471   41.0987 H       565      M_A    0.0000
   3245 H          22.5517   71.6073   40.1497 H       565      M_A    0.0000
   3246 H          23.1278   72.5342   39.0960 H       565      M_A    0.0000
   3247 C          23.9533   72.6940   40.7800 C.3     566      M_A    0.0000
   3248 C          24.8676   71.7536   40.6235 C.3     566      M_A    0.0000
   3249 H          24.3197   73.5403   40.5715 H       566      M_A    0.0000
   3250 H          23.6789   72.7322   41.6840 H       566      M_A    0.0000
   3251 H          25.1364   71.7103   39.7181 H       566      M_A    0.0000
   3252 H          25.6399   71.9654   41.1262 H       566      M_A    0.0000
   3253 C          24.4207   70.5366   41.0038 C.3     567      M_A    0.0000
   3254 C          25.2066   69.5613   40.5846 C.3     567      M_A    0.0000
   3255 H          24.3547   70.5172   41.9468 H       567      M_A    0.0000
   3256 H          23.5453   70.4148   40.6678 H       567      M_A    0.0000
   3257 H          24.9523   68.7443   40.9870 H       567      M_A    0.0000
   3258 H          25.1102   69.4457   39.6511 H       567      M_A    0.0000
   3259 C          26.5077   69.7969   40.8622 C.3     568      M_A    0.0000
   3260 C          27.3141   68.9718   40.2190 C.3     568      M_A    0.0000
   3261 H          26.7106   70.6918   40.6345 H       568      M_A    0.0000
   3262 H          26.6395   69.7175   41.7950 H       568      M_A    0.0000
   3263 H          27.4492   68.1873   40.7290 H       568      M_A    0.0000
   3264 H          26.9183   68.7012   39.4041 H       568      M_A    0.0000
   3265 C          28.5150   69.5318   39.9549 C.3     569      M_A    0.0000
   3266 C          29.4322   68.6304   39.6532 C.3     569      M_A    0.0000
   3267 H          28.4154   70.1443   39.2416 H       569      M_A    0.0000
   3268 H          28.7892   70.0340   40.7076 H       569      M_A    0.0000
   3269 H          29.0243   67.7909   39.5020 H       569      M_A    0.0000
   3270 H          29.8689   68.8687   38.8492 H       569      M_A    0.0000
   3271 C          30.3578   68.4955   40.6281 C.3     570      M_A    0.0000
   3272 C          30.4861   67.2428   41.0268 C.3     570      M_A    0.0000
   3273 H          31.1862   68.8206   40.3089 H       570      M_A    0.0000
   3274 H          30.1137   69.0447   41.3581 H       570      M_A    0.0000
   3275 H          29.8948   66.6862   40.5425 H       570      M_A    0.0000
   3276 H          31.3607   66.9328   40.8454 H       570      M_A    0.0000
   3277 C          30.2377   67.0975   42.3469 C.3     571      M_A    0.0000
   3278 C          29.1076   66.4532   42.5757 C.3     571      M_A    0.0000
   3279 H          30.9606   66.6353   42.7439 H       571      M_A    0.0000
   3280 H          30.2098   67.9534   42.7477 H       571      M_A    0.0000
   3281 H          28.9701   66.3604   43.5066 H       571      M_A    0.0000
   3282 H          28.3768   66.9516   42.2417 H       571      M_A    0.0000
   3283 C          29.0936   65.2268   42.0091 C.3     572      M_A    0.0000
   3284 C          27.8662   64.7871   41.7972 C.3     572      M_A    0.0000
   3285 H          29.5705   65.2625   41.1934 H       572      M_A    0.0000
   3286 H          29.5607   64.6263   42.5706 H       572      M_A    0.0000
   3287 H          27.2593   65.5121   41.7876 H       572      M_A    0.0000
   3288 H          27.8113   64.3759   40.9476 H       572      M_A    0.0000
   3289 C          27.4706   63.9004   42.7366 C.3     573      M_A    0.0000
   3290 C          26.2394   63.4686   42.5305 C.3     573      M_A    0.0000
   3291 H          28.0732   63.1718   42.7410 H       573      M_A    0.0000
   3292 H          27.5327   64.3092   43.5869 H       573      M_A    0.0000
   3293 H          25.7642   63.4418   43.3475 H       573      M_A    0.0000
   3294 H          25.7755   64.0689   41.9662 H       573      M_A    0.0000
   3295 C          26.2149   62.2387   41.9719 C.3     574      M_A    0.0000
   3296 C          25.7181   61.3275   42.7891 C.3     574      M_A    0.0000
   3297 H          25.7035   62.2749   41.1775 H       574      M_A    0.0000
   3298 H          27.0943   62.0017   41.7182 H       574      M_A    0.0000
   3299 H          26.3598   61.0945   43.4433 H       574      M_A    0.0000
   3300 H          24.9732   61.6796   43.2529 H       574      M_A    0.0000
   3301 C          25.3355   60.2083   42.1363 C.3     575      M_A    0.0000
   3302 C          26.1929   59.2166   42.2979 C.3     575      M_A    0.0000
   3303 H          24.4803   59.9514   42.4472 H       575      M_A    0.0000
   3304 H          25.2412   60.4088   41.2171 H       575      M_A    0.0000
   3305 H          26.6839   59.3395   43.0965 H       575      M_A    0.0000
   3306 H          25.7285   58.3979   42.3879 H       575      M_A    0.0000
   3307 C          27.0587   59.1150   41.2657 C.3     576      M_A    0.0000
   3308 C          27.3221   57.8584   40.9551 C.2     576      M_A    0.0000
   3309 H          26.6951   59.5645   40.5176 H       576      M_A    0.0000
   3310 H          27.8575   59.5672   41.4923 H       576      M_A    0.0000
   3311 H          27.6857   57.4089   41.7032 H       576      M_A    0.0000
   3312 H          26.5233   57.4062   40.7285 H       576      M_A    0.0000
   3313 C          41.6658   72.5223   45.1968 C.2     577      M_A    0.0000
   3314 C          42.4454   73.6899   44.5819 C.3     577      M_A    0.0000
   3315 H          42.2586   72.0506   45.9903 H       577      M_A    0.0000
   3316 H          41.4837   71.7507   44.4385 H       577      M_A    0.0000
   3317 H          41.8384   74.1841   43.8132 H       577      M_A    0.0000
   3318 H          42.6587   74.4450   45.3486 H       577      M_A    0.0000
   3319 C          43.7978   73.2275   43.9379 C.3     578      M_A    0.0000
   3320 C          44.0354   71.7225   44.1035 C.3     578      M_A    0.0000
   3321 H          43.7912   73.4925   42.8733 H       578      M_A    0.0000
   3322 H          44.6192   73.7909   44.3977 H       578      M_A    0.0000
   3323 H          44.3572   71.5031   45.1291 H       578      M_A    0.0000
   3324 H          43.0990   71.1739   43.9429 H       578      M_A    0.0000
   3325 C          45.1168   71.1786   43.1074 C.3     579      M_A    0.0000
   3326 C          46.3590   70.6479   43.8315 C.3     579      M_A    0.0000
   3327 H          44.6685   70.3841   42.4980 H       579      M_A    0.0000
   3328 H          45.3988   71.9837   42.4175 H       579      M_A    0.0000
   3329 H          46.7822   71.4296   44.4745 H       579      M_A    0.0000
   3330 H          46.0835   69.8140   44.4889 H       579      M_A    0.0000
   3331 C          47.4655   70.1606   42.8337 C.3     580      M_A    0.0000
   3332 C          48.6264   71.1551   42.7227 C.3     580      M_A    0.0000
   3333 H          47.8374   69.1840   43.1676 H       580      M_A    0.0000
   3334 H          47.0090   70.0038   41.8485 H       580      M_A    0.0000
   3335 H          48.8490   71.5847   43.7073 H       580      M_A    0.0000
   3336 H          49.5352   70.6371   42.3922 H       580      M_A    0.0000
   3337 C          48.3165   72.3206   41.7212 C.3     581      M_A    0.0000
   3338 C          49.4416   72.5238   40.7004 C.3     581      M_A    0.0000
   3339 H          47.3743   72.1011   41.2038 H       581      M_A    0.0000
   3340 H          48.1550   73.2436   42.2917 H       581      M_A    0.0000
   3341 H          50.1672   73.2535   41.0807 H       581      M_A    0.0000
   3342 H          49.9883   71.5844   40.5511 H       581      M_A    0.0000
   3343 C          48.9037   73.0212   39.3145 C.3     582      M_A    0.0000
   3344 C          50.0318   73.4834   38.3856 C.3     582      M_A    0.0000
   3345 H          48.3372   72.2087   38.8428 H       582      M_A    0.0000
   3346 H          48.1957   73.8419   39.4838 H       582      M_A    0.0000
   3347 H          49.6281   73.7232   37.3941 H       582      M_A    0.0000
   3348 H          50.4841   74.4048   38.7728 H       582      M_A    0.0000
   3349 C          51.1523   72.3987   38.2262 C.3     583      M_A    0.0000
   3350 C          52.2889   72.8678   37.3113 C.3     583      M_A    0.0000
   3351 H          51.5470   72.1496   39.2190 H       583      M_A    0.0000
   3352 H          50.7022   71.4814   37.8269 H       583      M_A    0.0000
   3353 H          52.0680   72.6016   36.2702 H       583      M_A    0.0000
   3354 H          52.3728   73.9611   37.3459 H       583      M_A    0.0000
   3355 C          53.6697   72.2422   37.7107 C.3     584      M_A    0.0000
   3356 C          54.1579   71.2109   36.6874 C.3     584      M_A    0.0000
   3357 H          54.4067   73.0483   37.8133 H       584      M_A    0.0000
   3358 H          53.5738   71.7754   38.6989 H       584      M_A    0.0000
   3359 H          53.8057   71.4484   35.6083 H       584      M_A    0.0000
   3360 H          55.3164   71.1660   36.6574 H       584      M_A    0.0000
   3361 C          53.5768   69.7213   37.1233 C.3     585      M_A    0.0000
   3362 C          52.9724   68.9046   35.8612 C.3     585      M_A    0.0000
   3363 H          54.4341   69.1150   37.6156 H       585      M_A    0.0000
   3364 H          52.7597   69.8615   37.9343 H       585      M_A    0.0000
   3365 H          52.6492   69.6432   35.0274 H       585      M_A    0.0000
   3366 H          53.7890   68.2208   35.4021 H       585      M_A    0.0000
   3367 C          51.6694   67.9713   36.2827 C.3     586      M_A    0.0000
   3368 C          50.5597   67.8981   35.1043 C.3     586      M_A    0.0000
   3369 H          52.0424   66.9048   36.5445 H       586      M_A    0.0000
   3370 H          51.1958   68.4049   37.2485 H       586      M_A    0.0000
   3371 H          50.4636   68.9300   34.5838 H       586      M_A    0.0000
   3372 H          50.8943   67.1438   34.2893 H       586      M_A    0.0000
   3373 C          49.0699   67.4453   35.6719 C.3     587      M_A    0.0000
   3374 C          48.0115   67.1791   34.4743 C.3     587      M_A    0.0000
   3375 H          49.1903   66.4885   36.3162 H       587      M_A    0.0000
   3376 H          48.6711   68.2744   36.3780 H       587      M_A    0.0000
   3377 H          48.0565   68.0449   33.7040 H       587      M_A    0.0000
   3378 H          48.2931   66.2099   33.9028 H       587      M_A    0.0000
   3379 C          46.4565   67.0387   35.0300 C.3     588      M_A    0.0000
   3380 C          45.3967   67.8326   34.0962 C.3     588      M_A    0.0000
   3381 H          46.1776   65.9141   35.0805 H       588      M_A    0.0000
   3382 H          46.4099   67.4425   36.1162 H       588      M_A    0.0000
   3383 H          45.8806   68.8011   33.6804 H       588      M_A    0.0000
   3384 H          45.1104   67.1831   33.1790 H       588      M_A    0.0000
   3385 C          44.0149   68.2358   34.9175 C.3     589      M_A    0.0000
   3386 C          43.5665   69.7695   34.6491 C.3     589      M_A    0.0000
   3387 H          43.1663   67.5120   34.5995 H       589      M_A    0.0000
   3388 H          44.1906   68.0655   36.0511 H       589      M_A    0.0000
   3389 H          44.4696   70.3860   34.2625 H       589      M_A    0.0000
   3390 H          42.7574   69.8079   33.8191 H       589      M_A    0.0000
   3391 C          42.9679   70.4967   36.0127 C.3     590      M_A    0.0000
   3392 C          41.6664   71.4100   35.7006 C.3     590      M_A    0.0000
   3393 H          42.7012   69.6760   36.7876 H       590      M_A    0.0000
   3394 H          43.8038   71.1448   36.4884 H       590      M_A    0.0000
   3395 H          41.7478   71.8685   34.6385 H       590      M_A    0.0000
   3396 H          40.7096   70.7546   35.7081 H       590      M_A    0.0000
   3397 C          41.4820   72.6369   36.7994 C.3     591      M_A    0.0000
   3398 C          40.0116   73.3132   36.7236 C.3     591      M_A    0.0000
   3399 H          41.6724   72.2173   37.8637 H       591      M_A    0.0000
   3400 H          42.2985   73.4376   36.6061 H       591      M_A    0.0000
   3401 H          39.9458   74.0201   35.8065 H       591      M_A    0.0000
   3402 H          39.2046   72.4943   36.5714 H       591      M_A    0.0000
   3403 C          39.6459   74.1760   38.0905 C.3     592      M_A    0.0000
   3404 C          38.2526   74.9907   37.9480 C.3     592      M_A    0.0000
   3405 H          39.5894   73.4457   38.9896 H       592      M_A    0.0000
   3406 H          40.5153   74.9109   38.3124 H       592      M_A    0.0000
   3407 H          37.8432   75.2651   38.9978 H       592      M_A    0.0000
   3408 H          38.4320   75.9907   37.3887 H       592      M_A    0.0000
   3409 C          37.0983   74.1234   37.1344 C.3     593      M_A    0.0000
   3410 C          35.6888   74.9166   37.0377 C.3     593      M_A    0.0000
   3411 H          37.4926   73.8820   36.0708 H       593      M_A    0.0000
   3412 H          36.9465   73.1069   37.6720 H       593      M_A    0.0000
   3413 H          35.3583   75.0065   35.9296 H       593      M_A    0.0000
   3414 H          34.8585   74.3204   37.5856 H       593      M_A    0.0000
   3415 C          35.7769   76.4360   37.6937 C.3     594      M_A    0.0000
   3416 C          34.3396   76.9576   38.2298 C.3     594      M_A    0.0000
   3417 H          36.5449   76.4240   38.5627 H       594      M_A    0.0000
   3418 H          36.1913   77.1655   36.8930 H       594      M_A    0.0000
   3419 H          33.5285   76.7930   37.4173 H       594      M_A    0.0000
   3420 H          34.0130   76.3410   39.1562 H       594      M_A    0.0000
   3421 C          34.3671   78.5632   38.6395 C.3     595      M_A    0.0000
   3422 C          33.1590   78.9617   39.6430 C.3     595      M_A    0.0000
   3423 H          35.3890   78.8060   39.1313 H       595      M_A    0.0000
   3424 H          34.3047   79.1974   37.6705 H       595      M_A    0.0000
   3425 H          32.1452   78.6069   39.2055 H       595      M_A    0.0000
   3426 H          33.2911   78.4192   40.6596 H       595      M_A    0.0000
   3427 C          33.0812   80.5946   39.9152 C.3     596      M_A    0.0000
   3428 C          31.7301   81.0226   40.7005 C.3     596      M_A    0.0000
   3429 H          34.0142   80.9169   40.5241 H       596      M_A    0.0000
   3430 H          33.1411   81.1465   38.8969 H       596      M_A    0.0000
   3431 H          31.7264   80.5627   41.7652 H       596      M_A    0.0000
   3432 H          31.6962   82.1740   40.8349 H       596      M_A    0.0000
   3433 C          30.3602   80.5371   39.9041 C.3     597      M_A    0.0000
   3434 C          29.0745   80.4567   40.8869 C.3     597      M_A    0.0000
   3435 H          30.1511   81.2763   39.0353 H       597      M_A    0.0000
   3436 H          30.5563   79.5014   39.4203 H       597      M_A    0.0000
   3437 H          29.3049   79.7627   41.7871 H       597      M_A    0.0000
   3438 H          28.8430   81.5052   41.3253 H       597      M_A    0.0000
   3439 C          27.7240   79.8927   40.1094 C.3     598      M_A    0.0000
   3440 C          26.4028   79.9627   41.0448 C.3     598      M_A    0.0000
   3441 H          27.5613   80.5147   39.1441 H       598      M_A    0.0000
   3442 H          27.9155   78.7995   39.7729 H       598      M_A    0.0000
   3443 H          26.6178   79.4731   42.0739 H       598      M_A    0.0000
   3444 H          26.1219   81.0683   41.2541 H       598      M_A    0.0000
   3445 C          25.1025   79.2030   40.3530 C.3     599      M_A    0.0000
   3446 C          23.7533   80.0961   40.4371 C.3     599      M_A    0.0000
   3447 H          25.3538   78.9655   39.2459 H       599      M_A    0.0000
   3448 H          24.9390   78.1846   40.8832 H       599      M_A    0.0000
   3449 H          23.8181   80.8312   41.3318 H       599      M_A    0.0000
   3450 H          23.6448   80.7438   39.4811 H       599      M_A    0.0000
   3451 C          22.3932   79.1647   40.6085 C.3     600      M_A    0.0000
   3452 C          21.2342   79.9198   41.4523 C.3     600      M_A    0.0000
   3453 H          21.9983   78.8824   39.5552 H       600      M_A    0.0000
   3454 H          22.6838   78.1717   41.1325 H       600      M_A    0.0000
   3455 H          21.2697   79.5867   42.5627 H       600      M_A    0.0000
   3456 H          21.4170   81.0650   41.4422 H       600      M_A    0.0000
   3457 C          19.7201   79.6150   40.8514 C.3     601      M_A    0.0000
   3458 C          18.7760   80.9317   40.8690 C.3     601      M_A    0.0000
   3459 H          19.8218   79.2131   39.7682 H       601      M_A    0.0000
   3460 H          19.2333   78.7682   41.4766 H       601      M_A    0.0000
   3461 H          18.9309   81.5189   41.8571 H       601      M_A    0.0000
   3462 H          19.0749   81.6469   40.0063 H       601      M_A    0.0000
   3463 C          17.1693   80.5546   40.7180 C.3     602      M_A    0.0000
   3464 C          16.6377   80.7302   39.1975 C.3     602      M_A    0.0000
   3465 H          17.0068   79.4623   41.0725 H       602      M_A    0.0000
   3466 H          16.5575   81.2316   41.4339 H       602      M_A    0.0000
   3467 H          15.6660   80.1162   39.0426 H       602      M_A    0.0000
   3468 H          16.3661   81.8397   38.9968 H       602      M_A    0.0000
   3469 C          17.7604   80.2444   38.0795 C.3     603      M_A    0.0000
   3470 C          17.6136   81.0404   36.6759 C.3     603      M_A    0.0000
   3471 H          18.8210   80.4069   38.5198 H       603      M_A    0.0000
   3472 H          17.6439   79.1039   37.9040 H       603      M_A    0.0000
   3473 H          16.5518   81.4985   36.5877 H       603      M_A    0.0000
   3474 H          18.3622   81.9256   36.6406 H       603      M_A    0.0000
   3475 C          17.8830   80.0604   35.3669 C.3     604      M_A    0.0000
   3476 C          16.7377   80.2226   34.2323 C.3     604      M_A    0.0000
   3477 H          18.9236   80.3109   34.9202 H       604      M_A    0.0000
   3478 H          17.9320   78.9594   35.7280 H       604      M_A    0.0000
   3479 H          16.0738   81.1444   34.4664 H       604      M_A    0.0000
   3480 H          17.2266   80.4181   33.1989 H       604      M_A    0.0000
   3481 C          15.7700   78.8819   34.1205 C.3     605      M_A    0.0000
   3482 C          14.4756   78.9762   35.0906 C.3     605      M_A    0.0000
   3483 H          15.4325   78.7554   33.0182 H       605      M_A    0.0000
   3484 H          16.3985   77.9441   34.3861 H       605      M_A    0.0000
   3485 H          14.6918   79.6970   35.9731 H       605      M_A    0.0000
   3486 H          13.5753   79.4209   34.5102 H       605      M_A    0.0000
   3487 C          14.0399   77.4988   35.7019 C.3     606      M_A    0.0000
   3488 C          13.9652   77.5017   37.3204 C.3     606      M_A    0.0000
   3489 H          13.0118   77.1985   35.2569 H       606      M_A    0.0000
   3490 H          14.8039   76.7046   35.3405 H       606      M_A    0.0000
   3491 H          13.7929   78.5810   37.7086 H       606      M_A    0.0000
   3492 H          13.0601   76.8708   37.6779 H       606      M_A    0.0000
   3493 C          15.3441   76.8984   38.0139 C.3     607      M_A    0.0000
   3494 C          15.1758   76.6586   39.6075 C.3     607      M_A    0.0000
   3495 H          15.6215   75.9021   37.4890 H       607      M_A    0.0000
   3496 H          16.2170   77.6351   37.8127 H       607      M_A    0.0000
   3497 H          15.6045   77.5631   40.1933 H       607      M_A    0.0000
   3498 H          14.0513   76.5866   39.8822 H       607      M_A    0.0000
   3499 C          15.9399   75.2799   40.1194 C.3     608      M_A    0.0000
   3500 C          17.2440   75.6011   41.0258 C.3     608      M_A    0.0000
   3501 H          15.1860   74.6362   40.7213 H       608      M_A    0.0000
   3502 H          16.2449   74.6550   39.1912 H       608      M_A    0.0000
   3503 H          17.6073   76.6850   40.8299 H       608      M_A    0.0000
   3504 H          16.9709   75.5396   42.1513 H       608      M_A    0.0000
   3505 C          18.4934   74.5557   40.7214 C.3     609      M_A    0.0000
   3506 C          18.8344   73.6180   41.9980 C.3     609      M_A    0.0000
   3507 H          18.2161   73.8978   39.8074 H       609      M_A    0.0000
   3508 H          19.4292   75.1700   40.4179 H       609      M_A    0.0000
   3509 H          18.5758   74.1757   42.9814 H       609      M_A    0.0000
   3510 H          18.1788   72.6616   41.9753 H       609      M_A    0.0000
   3511 C          20.4297   73.1712   42.0408 C.3     610      M_A    0.0000
   3512 C          20.6771   71.7134   41.3783 C.2     610      M_A    0.0000
   3513 H          21.0574   73.9724   41.4848 H       610      M_A    0.0000
   3514 H          20.7889   73.1730   43.1436 H       610      M_A    0.0000
   3515 H          20.0494   70.9122   41.9343 H       610      M_A    0.0000
   3516 H          20.3179   71.7116   40.2755 H       610      M_A    0.0000
   3517 C         127.9370   64.5253   14.0297 C.2     611      M_A    0.0000
   3518 C         127.2192   63.4455   13.2126 C.3     611      M_A    0.0000
   3519 H         127.4690   64.6233   15.0170 H       611      M_A    0.0000
   3520 H         127.8369   65.4996   13.5355 H       611      M_A    0.0000
   3521 H         127.5844   63.4515   12.1781 H       611      M_A    0.0000
   3522 H         127.4452   62.4525   13.6207 H       611      M_A    0.0000
   3523 C         125.6643   63.6449   13.2006 C.3     612      M_A    0.0000
   3524 C         124.8778   63.9198   14.4345 C.3     612      M_A    0.0000
   3525 H         125.5800   64.4635   12.5236 H       612      M_A    0.0000
   3526 H         125.2706   62.7911   12.6990 H       612      M_A    0.0000
   3527 H         125.0499   63.1543   15.1556 H       612      M_A    0.0000
   3528 H         125.1994   64.8346   14.8766 H       612      M_A    0.0000
   3529 C         123.3828   64.0070   14.1585 C.3     613      M_A    0.0000
   3530 C         122.5699   63.8326   15.3935 C.3     613      M_A    0.0000
   3531 H         123.1705   64.9508   13.7115 H       613      M_A    0.0000
   3532 H         123.1220   63.2631   13.4413 H       613      M_A    0.0000
   3533 H         122.4194   62.7958   15.5885 H       613      M_A    0.0000
   3534 H         123.0919   64.2293   16.2336 H       613      M_A    0.0000
   3535 C         121.2125   64.5151   15.2921 C.3     614      M_A    0.0000
   3536 C         120.2976   64.1187   16.3977 C.3     614      M_A    0.0000
   3537 H         121.3575   65.5708   15.2986 H       614      M_A    0.0000
   3538 H         120.7752   64.2720   14.3511 H       614      M_A    0.0000
   3539 H         119.6425   64.9245   16.6366 H       614      M_A    0.0000
   3540 H         119.6823   63.3053   16.0890 H       614      M_A    0.0000
   3541 C         121.0543   63.7121   17.6551 C.3     615      M_A    0.0000
   3542 C         120.1710   63.0554   18.6576 C.3     615      M_A    0.0000
   3543 H         121.8477   63.0554   17.3814 H       615      M_A    0.0000
   3544 H         121.5069   64.5788   18.0790 H       615      M_A    0.0000
   3545 H         119.7733   63.7833   19.3267 H       615      M_A    0.0000
   3546 H         119.3393   62.6013   18.1700 H       615      M_A    0.0000
   3547 C         120.9051   61.9944   19.4664 C.3     616      M_A    0.0000
   3548 C         121.1543   62.4263   20.8692 C.3     616      M_A    0.0000
   3549 H         120.3306   61.0968   19.4570 H       616      M_A    0.0000
   3550 H         121.8284   61.7718   18.9831 H       616      M_A    0.0000
   3551 H         121.1822   63.4902   20.9244 H       616      M_A    0.0000
   3552 H         120.3542   62.1082   21.4971 H       616      M_A    0.0000
   3553 C         122.4611   61.8717   21.4202 C.3     617      M_A    0.0000
   3554 C         122.3733   61.5595   22.8733 C.3     617      M_A    0.0000
   3555 H         122.7199   60.9947   20.8730 H       617      M_A    0.0000
   3556 H         123.2364   62.5816   21.2452 H       617      M_A    0.0000
   3557 H         122.2484   62.4576   23.4331 H       617      M_A    0.0000
   3558 H         121.5159   60.9567   23.0663 H       617      M_A    0.0000
   3559 C         123.6099   60.8314   23.3828 C.3     618      M_A    0.0000
   3560 C         123.5302   60.5355   24.8397 C.3     618      M_A    0.0000
   3561 H         123.7271   59.9266   22.8321 H       618      M_A    0.0000
   3562 H         124.4687   61.4280   23.1775 H       618      M_A    0.0000
   3563 H         123.7272   61.4184   25.4032 H       618      M_A    0.0000
   3564 H         122.5441   60.2228   25.0957 H       618      M_A    0.0000
   3565 C         124.5139   59.4531   25.2634 C.3     619      M_A    0.0000
   3566 C         124.5344   59.2556   26.7389 C.3     619      M_A    0.0000
   3567 H         124.2528   58.5420   24.7764 H       619      M_A    0.0000
   3568 H         125.4862   59.7178   24.9167 H       619      M_A    0.0000
   3569 H         123.6041   58.8518   27.0665 H       619      M_A    0.0000
   3570 H         125.2853   58.5468   27.0023 H       619      M_A    0.0000
   3571 C         124.7984   60.5529   27.4913 C.3     620      M_A    0.0000
   3572 C         124.9237   60.3384   28.9592 C.3     620      M_A    0.0000
   3573 H         125.6891   60.9962   27.1095 H       620      M_A    0.0000
   3574 H         124.0056   61.2353   27.2880 H       620      M_A    0.0000
   3575 H         124.7726   61.2575   29.4770 H       620      M_A    0.0000
   3576 H         124.1662   59.6690   29.2966 H       620      M_A    0.0000
   3577 C         126.2845   59.7751   29.3461 C.3     621      M_A    0.0000
   3578 C         126.6334   60.0664   30.7638 C.3     621      M_A    0.0000
   3579 H         126.2804   58.7225   29.1797 H       621      M_A    0.0000
   3580 H         127.0232   60.1848   28.6964 H       621      M_A    0.0000
   3581 H         125.7697   60.3999   31.2915 H       621      M_A    0.0000
   3582 H         126.9640   59.1770   31.2489 H       621      M_A    0.0000
   3583 C         127.7215   61.1248   30.8846 C.3     622      M_A    0.0000
   3584 C         127.9363   61.5550   32.2936 C.3     622      M_A    0.0000
   3585 H         128.6267   60.7345   30.4797 H       622      M_A    0.0000
   3586 H         127.4537   61.9629   30.2834 H       622      M_A    0.0000
   3587 H         127.8789   62.6168   32.3642 H       622      M_A    0.0000
   3588 H         127.1647   61.1648   32.9165 H       622      M_A    0.0000
   3589 C         129.2837   61.0991   32.8372 C.3     623      M_A    0.0000
   3590 C         129.3099   61.0667   34.3254 C.3     623      M_A    0.0000
   3591 H         129.5021   60.1320   32.4467 H       623      M_A    0.0000
   3592 H         130.0408   61.7545   32.4726 H       623      M_A    0.0000
   3593 H         129.1177   62.0396   34.7155 H       623      M_A    0.0000
   3594 H         128.5357   60.4321   34.6908 H       623      M_A    0.0000
   3595 C         130.6449   60.5750   34.8685 C.3     624      M_A    0.0000
   3596 C         130.7546   60.7536   36.3424 C.3     624      M_A    0.0000
   3597 H         130.7607   59.5463   34.6154 H       624      M_A    0.0000
   3598 H         131.4304   61.1014   34.3771 H       624      M_A    0.0000
   3599 H         130.2576   61.6480   36.6402 H       624      M_A    0.0000
   3600 H         130.2667   59.9505   36.8451 H       624      M_A    0.0000
   3601 C         132.2025   60.8178   36.8098 C.3     625      M_A    0.0000
   3602 C         132.3161   60.8331   38.2941 C.3     625      M_A    0.0000
   3603 H         132.7294   59.9815   36.4115 H       625      M_A    0.0000
   3604 H         132.6575   61.6898   36.3995 H       625      M_A    0.0000
   3605 H         133.3351   60.9551   38.5814 H       625      M_A    0.0000
   3606 H         131.7840   61.6659   38.6928 H       625      M_A    0.0000
   3607 C         131.7771   59.5575   38.9274 C.3     626      M_A    0.0000
   3608 C         131.1984   59.7987   40.2777 C.3     626      M_A    0.0000
   3609 H         131.0386   59.1395   38.2827 H       626      M_A    0.0000
   3610 H         132.5670   58.8449   38.9903 H       626      M_A    0.0000
   3611 H         131.7715   60.5334   40.7949 H       626      M_A    0.0000
   3612 H         130.2108   60.1887   40.1876 H       626      M_A    0.0000
   3613 C         131.1507   58.5311   41.1200 C.3     627      M_A    0.0000
   3614 C         129.7658   58.0057   41.2708 C.3     627      M_A    0.0000
   3615 H         131.7737   57.7944   40.6676 H       627      M_A    0.0000
   3616 H         131.5688   58.7392   42.0779 H       627      M_A    0.0000
   3617 H         129.0585   58.7777   41.0726 H       627      M_A    0.0000
   3618 H         129.5871   57.2360   40.5557 H       627      M_A    0.0000
   3619 C         129.5081   57.4498   42.6649 C.3     628      M_A    0.0000
   3620 C         129.3695   55.9675   42.6645 C.3     628      M_A    0.0000
   3621 H         130.3088   57.7418   43.3045 H       628      M_A    0.0000
   3622 H         128.6245   57.8993   43.0559 H       628      M_A    0.0000
   3623 H         129.2897   55.6077   43.6644 H       628      M_A    0.0000
   3624 H         128.4717   55.6845   42.1650 H       628      M_A    0.0000
   3625 C         130.5462   55.2780   41.9872 C.3     629      M_A    0.0000
   3626 C         130.9344   54.0169   42.6768 C.3     629      M_A    0.0000
   3627 H         130.2885   55.0756   40.9732 H       629      M_A    0.0000
   3628 H         131.3721   55.9512   41.9645 H       629      M_A    0.0000
   3629 H         131.7477   54.1990   43.3408 H       629      M_A    0.0000
   3630 H         130.1255   53.6628   43.2734 H       629      M_A    0.0000
   3631 C         131.3366   52.9234   41.6964 C.3     630      M_A    0.0000
   3632 C         132.8114   52.8509   41.5059 C.3     630      M_A    0.0000
   3633 H         130.9679   51.9894   42.0534 H       630      M_A    0.0000
   3634 H         130.8560   53.1053   40.7628 H       630      M_A    0.0000
   3635 H         133.1478   53.6866   40.9366 H       630      M_A    0.0000
   3636 H         133.3047   52.9045   42.4489 H       630      M_A    0.0000
   3637 C         133.2399   51.5716   40.7998 C.3     631      M_A    0.0000
   3638 C         133.9617   51.8444   39.5266 C.2     631      M_A    0.0000
   3639 H         133.8599   51.0073   41.4577 H       631      M_A    0.0000
   3640 H         132.3754   50.9781   40.6098 H       631      M_A    0.0000
   3641 H         133.3417   52.4087   38.8687 H       631      M_A    0.0000
   3642 H         134.8262   52.4379   39.7166 H       631      M_A    0.0000
   3643 C          97.4925   25.3453   42.8329 C.2     632      M_A    0.0000
   3644 C          97.1251   23.9637   42.7391 C.3     632      M_A    0.0000
   3645 H          96.8192   25.9238   42.3197 H       632      M_A    0.0000
   3646 H          98.4064   25.4967   42.3930 H       632      M_A    0.0000
   3647 H          97.8436   23.3782   43.1778 H       632      M_A    0.0000
   3648 H          96.2540   23.7959   43.2534 H       632      M_A    0.0000
   3649 C          96.9452   23.5300   41.3511 C.3     633      M_A    0.0000
   3650 C          98.1194   23.7442   40.5588 C.3     633      M_A    0.0000
   3651 H          96.6937   22.5359   41.3454 H       633      M_A    0.0000
   3652 H          96.1509   24.0370   40.9467 H       633      M_A    0.0000
   3653 H          98.3987   24.7299   40.6034 H       633      M_A    0.0000
   3654 H          98.9020   23.1990   40.9355 H       633      M_A    0.0000
   3655 C          97.9178   23.3735   39.1555 C.3     634      M_A    0.0000
   3656 C          97.8913   24.5154   38.2908 C.3     634      M_A    0.0000
   3657 H          98.6678   22.7346   38.8714 H       634      M_A    0.0000
   3658 H          97.0393   22.8508   39.0747 H       634      M_A    0.0000
   3659 H          97.5259   25.3300   38.7951 H       634      M_A    0.0000
   3660 H          98.8436   24.7548   37.9952 H       634      M_A    0.0000
   3661 C          97.0693   24.2903   37.0988 C.3     635      M_A    0.0000
   3662 C          95.9510   25.1833   37.0338 C.3     635      M_A    0.0000
   3663 H          97.6572   24.4018   36.2660 H       635      M_A    0.0000
   3664 H          96.7432   23.3181   37.1009 H       635      M_A    0.0000
   3665 H          95.6751   25.4706   37.9788 H       635      M_A    0.0000
   3666 H          96.2122   26.0379   36.5308 H       635      M_A    0.0000
   3667 C          94.7947   24.5779   36.3678 C.3     636      M_A    0.0000
   3668 C          94.7519   24.8845   34.9690 C.3     636      M_A    0.0000
   3669 H          94.8292   23.5621   36.5042 H       636      M_A    0.0000
   3670 H          93.9389   24.9077   36.8265 H       636      M_A    0.0000
   3671 H          94.9942   25.8693   34.8174 H       636      M_A    0.0000
   3672 H          95.4509   24.3283   34.4656 H       636      M_A    0.0000
   3673 C          93.4332   24.6272   34.3843 C.3     637      M_A    0.0000
   3674 C          93.5183   24.2022   33.0188 C.3     637      M_A    0.0000
   3675 H          92.9563   23.9136   34.9455 H       637      M_A    0.0000
   3676 H          92.8691   25.4809   34.4523 H       637      M_A    0.0000
   3677 H          94.0871   23.3518   32.9500 H       637      M_A    0.0000
   3678 H          92.5857   23.9620   32.6665 H       637      M_A    0.0000
   3679 C          94.1000   25.2308   32.1523 C.3     638      M_A    0.0000
   3680 C          93.9320   24.9282   30.7621 C.3     638      M_A    0.0000
   3681 H          93.6637   26.1327   32.3711 H       638      M_A    0.0000
   3682 H          95.0968   25.3245   32.3738 H       638      M_A    0.0000
   3683 H          92.9706   25.1345   30.4711 H       638      M_A    0.0000
   3684 H          94.5452   25.5239   30.1960 H       638      M_A    0.0000
   3685 C          94.2262   23.5250   30.4598 C.3     639      M_A    0.0000
   3686 C          95.5107   23.3593   29.8473 C.3     639      M_A    0.0000
   3687 H          94.1784   22.9826   31.3287 H       639      M_A    0.0000
   3688 H          93.4929   23.1589   29.8434 H       639      M_A    0.0000
   3689 H          95.6147   24.0149   29.0657 H       639      M_A    0.0000
   3690 H          96.2522   23.5825   30.5195 H       639      M_A    0.0000
   3691 C          95.7177   21.9962   29.3511 C.3     640      M_A    0.0000
   3692 C          96.5289   21.9654   28.1707 C.3     640      M_A    0.0000
   3693 H          96.1538   21.4374   30.0921 H       640      M_A    0.0000
   3694 H          94.8039   21.5713   29.1610 H       640      M_A    0.0000
   3695 H          97.0741   22.8307   28.0961 H       640      M_A    0.0000
   3696 H          97.2042   21.1959   28.2281 H       640      M_A    0.0000
   3697 C          95.7308   21.8036   26.9525 C.3     641      M_A    0.0000
   3698 C          96.1169   20.6473   26.2001 C.3     641      M_A    0.0000
   3699 H          94.7408   21.7398   27.2120 H       641      M_A    0.0000
   3700 H          95.8307   22.6468   26.3775 H       641      M_A    0.0000
   3701 H          97.0324   20.8008   25.7645 H       641      M_A    0.0000
   3702 H          96.2193   19.8399   26.8240 H       641      M_A    0.0000
   3703 C          95.1458   20.3156   25.1541 C.3     642      M_A    0.0000
   3704 C          95.5432   19.1729   24.3869 C.3     642      M_A    0.0000
   3705 H          94.2340   20.1458   25.5915 H       642      M_A    0.0000
   3706 H          95.0309   21.1288   24.5400 H       642      M_A    0.0000
   3707 H          95.4587   18.3224   24.9535 H       642      M_A    0.0000
   3708 H          94.9178   19.0544   23.5829 H       642      M_A    0.0000
   3709 C          96.9213   19.2820   23.9013 C.3     643      M_A    0.0000
   3710 C          97.3634   18.0856   23.2488 C.3     643      M_A    0.0000
   3711 H          96.9827   20.0772   23.2567 H       643      M_A    0.0000
   3712 H          97.5350   19.4974   24.6941 H       643      M_A    0.0000
   3713 H          97.8887   17.5000   23.9066 H       643      M_A    0.0000
   3714 H          96.5556   17.5330   22.9428 H       643      M_A    0.0000
   3715 C          98.2104   18.3673   22.0868 C.3     644      M_A    0.0000
   3716 C          98.4688   17.1942   21.3062 C.3     644      M_A    0.0000
   3717 H          97.7527   19.0803   21.5092 H       644      M_A    0.0000
   3718 H          99.0935   18.7745   22.4124 H       644      M_A    0.0000
   3719 H          98.4725   16.3645   21.9088 H       644      M_A    0.0000
   3720 H          97.7194   17.0564   20.6199 H       644      M_A    0.0000
   3721 C          99.7495   17.2693   20.5982 C.3     645      M_A    0.0000
   3722 C          99.7203   16.5710   19.3476 C.3     645      M_A    0.0000
   3723 H          99.9851   18.2554   20.4448 H       645      M_A    0.0000
   3724 H         100.4833   16.8814   21.2004 H       645      M_A    0.0000
   3725 H         100.6401   16.6185   18.8968 H       645      M_A    0.0000
   3726 H          99.5202   15.5775   19.5042 H       645      M_A    0.0000
   3727 C          98.7160   17.1162   18.4304 C.3     646      M_A    0.0000
   3728 C          98.4009   16.2080   17.3682 C.3     646      M_A    0.0000
   3729 H          97.8693   17.3413   18.9634 H       646      M_A    0.0000
   3730 H          99.0653   18.0001   18.0454 H       646      M_A    0.0000
   3731 H          99.2115   15.6155   17.1601 H       646      M_A    0.0000
   3732 H          97.6431   15.5799   17.6558 H       646      M_A    0.0000
   3733 C          97.9981   16.9044   16.1435 C.3     647      M_A    0.0000
   3734 C          96.6230   16.6732   15.8147 C.3     647      M_A    0.0000
   3735 H          98.1669   17.9087   16.2635 H       647      M_A    0.0000
   3736 H          98.6005   16.5944   15.3737 H       647      M_A    0.0000
   3737 H          96.1351   16.2579   16.6154 H       647      M_A    0.0000
   3738 H          96.1550   17.5633   15.6141 H       647      M_A    0.0000
   3739 C          96.4700   15.7878   14.6573 C.3     648      M_A    0.0000
   3740 C          95.5200   14.7422   14.8953 C.3     648      M_A    0.0000
   3741 H          96.1809   16.3480   13.8485 H       648      M_A    0.0000
   3742 H          97.3844   15.3859   14.4253 H       648      M_A    0.0000
   3743 H          95.9715   13.9613   15.3832 H       648      M_A    0.0000
   3744 H          94.7718   15.0801   15.5098 H       648      M_A    0.0000
   3745 C          94.9224   14.2417   13.6546 C.3     649      M_A    0.0000
   3746 C          93.6416   14.8282   13.3938 C.3     649      M_A    0.0000
   3747 H          95.5628   14.4358   12.8775 H       649      M_A    0.0000
   3748 H          94.8360   13.2219   13.7172 H       649      M_A    0.0000
   3749 H          93.2087   15.1323   14.2722 H       649      M_A    0.0000
   3750 H          93.7503   15.6665   12.8134 H       649      M_A    0.0000
   3751 C          92.7331   13.8993   12.7163 C.3     650      M_A    0.0000
   3752 C          91.4266   13.8921   13.3039 C.3     650      M_A    0.0000
   3753 H          92.6720   14.1598   11.7263 H       650      M_A    0.0000
   3754 H          93.1384   12.9579   12.7486 H       650      M_A    0.0000
   3755 H          90.7541   13.4614   12.6605 H       650      M_A    0.0000
   3756 H          91.4271   13.3205   14.1553 H       650      M_A    0.0000
   3757 C          90.9615   15.2403   13.6403 C.3     651      M_A    0.0000
   3758 C          91.1742   16.1704   12.5717 C.3     651      M_A    0.0000
   3759 H          89.9643   15.1969   13.8754 H       651      M_A    0.0000
   3760 H          91.4496   15.5571   14.4847 H       651      M_A    0.0000
   3761 H          90.6765   17.0462   12.7636 H       651      M_A    0.0000
   3762 H          92.1699   16.4064   12.5039 H       651      M_A    0.0000
   3763 C          90.7244   15.6447   11.2801 C.3     652      M_A    0.0000
   3764 C          90.6218   16.6685   10.2832 C.3     652      M_A    0.0000
   3765 H          91.3799   14.9187   10.9723 H       652      M_A    0.0000
   3766 H          89.8161   15.1863   11.4081 H       652      M_A    0.0000
   3767 H          90.4558   16.2478    9.3629 H       652      M_A    0.0000
   3768 H          89.8166   17.2721   10.4806 H       652      M_A    0.0000
   3769 C          91.8278   17.4978   10.2127 C.3     653      M_A    0.0000
   3770 C          91.9157   18.2246    8.9813 C.2     653      M_A    0.0000
   3771 H          91.8285   18.1481   11.0056 H       653      M_A    0.0000
   3772 H          92.6501   16.8956   10.3251 H       653      M_A    0.0000
   3773 H          91.9150   17.5743    8.1884 H       653      M_A    0.0000
   3774 H          91.0934   18.8269    8.8690 H       653      M_A    0.0000
   3775 C          93.0917   59.9830   33.9318 C.2     654      M_A    0.0000
   3776 C          94.1527   59.7830   34.9798 C.3     654      M_A    0.0000
   3777 H          92.4881   59.0954   33.8433 H       654      M_A    0.0000
   3778 H          93.5485   60.1435   32.9697 H       654      M_A    0.0000
   3779 H          95.0465   60.3188   34.7075 H       654      M_A    0.0000
   3780 H          93.8232   60.1895   35.9212 H       654      M_A    0.0000
   3781 C          94.5053   58.2979   35.1770 C.3     655      M_A    0.0000
   3782 C          94.7370   57.5885   33.8704 C.3     655      M_A    0.0000
   3783 H          95.3842   58.2290   35.7956 H       655      M_A    0.0000
   3784 H          93.7068   57.8207   35.7198 H       655      M_A    0.0000
   3785 H          93.9206   57.7822   33.1951 H       655      M_A    0.0000
   3786 H          95.6268   57.9682   33.3968 H       655      M_A    0.0000
   3787 C          94.8816   56.0669   34.0505 C.3     656      M_A    0.0000
   3788 C          94.7759   55.3256   32.7453 C.3     656      M_A    0.0000
   3789 H          95.8307   55.8611   34.5162 H       656      M_A    0.0000
   3790 H          94.1217   55.7243   34.7324 H       656      M_A    0.0000
   3791 H          94.2781   55.9378   32.0122 H       656      M_A    0.0000
   3792 H          95.7591   55.1173   32.3582 H       656      M_A    0.0000
   3793 C          94.0078   53.9996   32.8883 C.3     657      M_A    0.0000
   3794 C          93.0679   53.7581   31.7383 C.3     657      M_A    0.0000
   3795 H          94.7180   53.1931   32.9604 H       657      M_A    0.0000
   3796 H          93.4606   54.0136   33.8159 H       657      M_A    0.0000
   3797 H          92.7031   54.6967   31.3561 H       657      M_A    0.0000
   3798 H          93.5906   53.2768   30.9289 H       657      M_A    0.0000
   3799 C          91.8657   52.8856   32.1409 C.3     658      M_A    0.0000
   3800 C          91.8049   51.6022   31.3578 C.3     658      M_A    0.0000
   3801 H          91.9288   52.6725   33.1948 H       658      M_A    0.0000
   3802 H          90.9612   53.4514   31.9934 H       658      M_A    0.0000
   3803 H          91.5696   51.8091   30.3274 H       658      M_A    0.0000
   3804 H          92.7678   51.1196   31.3643 H       658      M_A    0.0000
   3805 C          90.7566   50.6253   31.9195 C.3     659      M_A    0.0000
   3806 C          89.8791   50.0487   30.8417 C.3     659      M_A    0.0000
   3807 H          91.2654   49.8341   32.4442 H       659      M_A    0.0000
   3808 H          90.1552   51.1426   32.6480 H       659      M_A    0.0000
   3809 H          89.2396   50.8149   30.4369 H       659      M_A    0.0000
   3810 H          90.4839   49.6882   30.0266 H       659      M_A    0.0000
   3811 C          89.0034   48.8934   31.3584 C.3     660      M_A    0.0000
   3812 C          87.5382   49.1360   31.1162 C.3     660      M_A    0.0000
   3813 H          89.3115   47.9813   30.8754 H       660      M_A    0.0000
   3814 H          89.1870   48.7628   32.4116 H       660      M_A    0.0000
   3815 H          87.3454   50.1934   31.0477 H       660      M_A    0.0000
   3816 H          87.2436   48.7062   30.1736 H       660      M_A    0.0000
   3817 C          86.6569   48.5421   32.2294 C.3     661      M_A    0.0000
   3818 C          86.5208   47.0481   32.1130 C.3     661      M_A    0.0000
   3819 H          87.0824   48.8009   33.1844 H       661      M_A    0.0000
   3820 H          85.6856   49.0058   32.1877 H       661      M_A    0.0000
   3821 H          85.6044   46.7992   31.6049 H       661      M_A    0.0000
   3822 H          87.3237   46.6496   31.5158 H       661      M_A    0.0000
   3823 C          86.5315   46.3527   33.4860 C.3     662      M_A    0.0000
   3824 C          87.6881   45.4017   33.6345 C.3     662      M_A    0.0000
   3825 H          86.5707   47.1050   34.2558 H       662      M_A    0.0000
   3826 H          85.6011   45.8258   33.6155 H       662      M_A    0.0000
   3827 H          87.6874   44.9708   34.6217 H       662      M_A    0.0000
   3828 H          87.5858   44.5846   32.9403 H       662      M_A    0.0000
   3829 C          89.0436   46.0898   33.3945 C.3     663      M_A    0.0000
   3830 C          89.5516   46.7933   34.6239 C.3     663      M_A    0.0000
   3831 H          89.7563   45.3497   33.0715 H       663      M_A    0.0000
   3832 H          88.9380   46.7918   32.5845 H       663      M_A    0.0000
   3833 H          90.4904   47.2766   34.4114 H       663      M_A    0.0000
   3834 H          88.8638   47.5687   34.9164 H       663      M_A    0.0000
   3835 C          89.7464   45.8302   35.8084 C.3     664      M_A    0.0000
   3836 C          90.2762   46.5295   37.0309 C.3     664      M_A    0.0000
   3837 H          88.8038   45.3594   36.0317 H       664      M_A    0.0000
   3838 H          90.4212   45.0453   35.5104 H       664      M_A    0.0000
   3839 H          90.0832   47.5870   36.9640 H       664      M_A    0.0000
   3840 H          89.7633   46.1765   37.9097 H       664      M_A    0.0000
   3841 C          91.7883   46.3120   37.2180 C.3     665      M_A    0.0000
   3842 C          92.0994   45.4913   38.4402 C.3     665      M_A    0.0000
   3843 H          92.1809   45.8289   36.3390 H       665      M_A    0.0000
   3844 H          92.2714   47.2723   37.2850 H       665      M_A    0.0000
   3845 H          91.4304   45.7548   39.2421 H       665      M_A    0.0000
   3846 H          91.9388   44.4465   38.2342 H       665      M_A    0.0000
   3847 C          93.5490   45.6854   38.9196 C.3     666      M_A    0.0000
   3848 C          94.4013   44.4719   38.6643 C.3     666      M_A    0.0000
   3849 H          93.9680   46.5427   38.4200 H       666      M_A    0.0000
   3850 H          93.5389   45.9149   39.9718 H       666      M_A    0.0000
   3851 H          94.9127   44.1832   39.5672 H       666      M_A    0.0000
   3852 H          93.7813   43.6383   38.3800 H       666      M_A    0.0000
   3853 C          95.4446   44.7139   37.5591 C.3     667      M_A    0.0000
   3854 C          96.8416   44.3862   38.0119 C.3     667      M_A    0.0000
   3855 H          95.1853   44.1177   36.7004 H       667      M_A    0.0000
   3856 H          95.3890   45.7438   37.2487 H       667      M_A    0.0000
   3857 H          97.3717   45.2908   38.2583 H       667      M_A    0.0000
   3858 H          96.8090   43.7925   38.9100 H       667      M_A    0.0000
   3859 C          97.6378   43.6209   36.9400 C.3     668      M_A    0.0000
   3860 C          97.2979   42.1553   36.9151 C.3     668      M_A    0.0000
   3861 H          97.4384   44.0626   35.9781 H       668      M_A    0.0000
   3862 H          98.6899   43.7529   37.1288 H       668      M_A    0.0000
   3863 H          98.1264   41.5777   37.2895 H       668      M_A    0.0000
   3864 H          96.4638   41.9585   37.5675 H       668      M_A    0.0000
   3865 C          96.9481   41.6615   35.5000 C.3     669      M_A    0.0000
   3866 C          95.9082   40.5742   35.5162 C.3     669      M_A    0.0000
   3867 H          96.5994   42.4974   34.9170 H       669      M_A    0.0000
   3868 H          97.8467   41.3061   35.0243 H       669      M_A    0.0000
   3869 H          96.3311   39.6645   35.9083 H       669      M_A    0.0000
   3870 H          95.0988   40.8470   36.1724 H       669      M_A    0.0000
   3871 C          95.3373   40.2921   34.1151 C.3     670      M_A    0.0000
   3872 C          95.0762   38.8274   33.8899 C.3     670      M_A    0.0000
   3873 H          94.4260   40.8529   33.9922 H       670      M_A    0.0000
   3874 H          96.0296   40.6615   33.3773 H       670      M_A    0.0000
   3875 H          96.0085   38.2946   33.8068 H       670      M_A    0.0000
   3876 H          94.5561   38.4107   34.7360 H       670      M_A    0.0000
   3877 C          94.2439   38.5717   32.6208 C.3     671      M_A    0.0000
   3878 C          94.5527   37.2384   31.9955 C.3     671      M_A    0.0000
   3879 H          93.1985   38.6276   32.8742 H       671      M_A    0.0000
   3880 H          94.4340   39.3633   31.9157 H       671      M_A    0.0000
   3881 H          95.4252   37.3175   31.3690 H       671      M_A    0.0000
   3882 H          94.7854   36.5167   32.7604 H       671      M_A    0.0000
   3883 C          93.3820   36.7054   31.1504 C.3     672      M_A    0.0000
   3884 C          93.5739   36.9670   29.6811 C.3     672      M_A    0.0000
   3885 H          93.2796   35.6479   31.3270 H       672      M_A    0.0000
   3886 H          92.4699   37.1657   31.4914 H       672      M_A    0.0000
   3887 H          94.2855   37.7626   29.5374 H       672      M_A    0.0000
   3888 H          93.9844   36.0945   29.2012 H       672      M_A    0.0000
   3889 C          92.2577   37.3461   28.9793 C.3     673      M_A    0.0000
   3890 C          92.4910   38.1033   27.7001 C.3     673      M_A    0.0000
   3891 H          91.6992   36.4470   28.7796 H       673      M_A    0.0000
   3892 H          91.6618   37.9367   29.6547 H       673      M_A    0.0000
   3893 H          93.5451   38.1468   27.4837 H       673      M_A    0.0000
   3894 H          92.0269   37.5880   26.8760 H       673      M_A    0.0000
   3895 C          91.9379   39.5382   27.7626 C.3     674      M_A    0.0000
   3896 C          90.5517   39.6407   27.1862 C.3     674      M_A    0.0000
   3897 H          91.9362   39.8653   28.7888 H       674      M_A    0.0000
   3898 H          92.6083   40.1922   27.2307 H       674      M_A    0.0000
   3899 H          90.5801   39.4682   26.1234 H       674      M_A    0.0000
   3900 H          89.9195   38.8768   27.6067 H       674      M_A    0.0000
   3901 C          89.9109   41.0151   27.4488 C.3     675      M_A    0.0000
   3902 C          88.9130   40.9734   28.5742 C.3     675      M_A    0.0000
   3903 H          90.6901   41.7244   27.6722 H       675      M_A    0.0000
   3904 H          89.4340   41.3542   26.5446 H       675      M_A    0.0000
   3905 H          87.9162   40.8676   28.1801 H       675      M_A    0.0000
   3906 H          89.0929   40.1123   29.1956 H       675      M_A    0.0000
   3907 C          88.9686   42.2376   29.4502 C.3     676      M_A    0.0000
   3908 C          87.6930   43.0331   29.3849 C.3     676      M_A    0.0000
   3909 H          89.1707   41.9466   30.4673 H       676      M_A    0.0000
   3910 H          89.7991   42.8447   29.1313 H       676      M_A    0.0000
   3911 H          87.7526   43.8814   30.0459 H       676      M_A    0.0000
   3912 H          87.5522   43.4244   28.3914 H       676      M_A    0.0000
   3913 C          86.4613   42.1927   29.7662 C.3     677      M_A    0.0000
   3914 C          86.0913   42.3486   31.2164 C.3     677      M_A    0.0000
   3915 H          85.6346   42.4848   29.1407 H       677      M_A    0.0000
   3916 H          86.6653   41.1583   29.5462 H       677      M_A    0.0000
   3917 H          86.9062   42.7972   31.7593 H       677      M_A    0.0000
   3918 H          85.2509   43.0151   31.3135 H       677      M_A    0.0000
   3919 C          85.7367   41.0039   31.8756 C.3     678      M_A    0.0000
   3920 C          84.4213   41.0554   32.6045 C.3     678      M_A    0.0000
   3921 H          85.7081   40.2414   31.1155 H       678      M_A    0.0000
   3922 H          86.5258   40.7323   32.5565 H       678      M_A    0.0000
   3923 H          84.3966   41.9080   33.2621 H       678      M_A    0.0000
   3924 H          83.6147   41.1830   31.9022 H       678      M_A    0.0000
   3925 C          84.1625   39.7835   33.4314 C.3     679      M_A    0.0000
   3926 C          84.0039   40.0793   34.8982 C.3     679      M_A    0.0000
   3927 H          83.2775   39.2986   33.0547 H       679      M_A    0.0000
   3928 H          84.9793   39.0981   33.2791 H       679      M_A    0.0000
   3929 H          84.8797   40.5843   35.2698 H       679      M_A    0.0000
   3930 H          83.1730   40.7470   35.0526 H       679      M_A    0.0000
   3931 C          83.7766   38.8041   35.7292 C.3     680      M_A    0.0000
   3932 C          84.6614   38.7504   36.9451 C.3     680      M_A    0.0000
   3933 H          82.7414   38.7615   36.0236 H       680      M_A    0.0000
   3934 H          83.9558   37.9456   35.1039 H       680      M_A    0.0000
   3935 H          85.6965   38.7330   36.6481 H       680      M_A    0.0000
   3936 H          84.5253   39.6377   37.5403 H       680      M_A    0.0000
   3937 C          84.3757   37.5172   37.8205 C.3     681      M_A    0.0000
   3938 C          85.6273   36.7504   38.1513 C.3     681      M_A    0.0000
   3939 H          83.8897   37.8394   38.7261 H       681      M_A    0.0000
   3940 H          83.6774   36.8797   37.3047 H       681      M_A    0.0000
   3941 H          86.1944   36.5645   37.2546 H       681      M_A    0.0000
   3942 H          86.2577   37.3346   38.8003 H       681      M_A    0.0000
   3943 C          85.3237   35.4049   38.8341 C.3     682      M_A    0.0000
   3944 C          85.5982   34.2326   37.9316 C.3     682      M_A    0.0000
   3945 H          85.9172   35.3284   39.7297 H       682      M_A    0.0000
   3946 H          84.2925   35.3982   39.1449 H       682      M_A    0.0000
   3947 H          84.7306   34.0182   37.3305 H       682      M_A    0.0000
   3948 H          86.3963   34.4712   37.2487 H       682      M_A    0.0000
   3949 C          85.9811   32.9671   38.7194 C.3     683      M_A    0.0000
   3950 C          84.8342   32.0002   38.8376 C.3     683      M_A    0.0000
   3951 H          86.8151   32.4927   38.2302 H       683      M_A    0.0000
   3952 H          86.3216   33.2578   39.6990 H       683      M_A    0.0000
   3953 H          83.9011   32.5121   38.6724 H       683      M_A    0.0000
   3954 H          84.9102   31.2423   38.0761 H       683      M_A    0.0000
   3955 C          84.7876   31.3162   40.2155 C.3     684      M_A    0.0000
   3956 C          84.9010   29.8193   40.1132 C.3     684      M_A    0.0000
   3957 H          85.5862   31.7063   40.8239 H       684      M_A    0.0000
   3958 H          83.8665   31.5842   40.7052 H       684      M_A    0.0000
   3959 H          84.2029   29.3493   40.7854 H       684      M_A    0.0000
   3960 H          84.6390   29.4961   39.1197 H       684      M_A    0.0000
   3961 C          86.3189   29.3180   40.4402 C.3     685      M_A    0.0000
   3962 C          86.3154   28.2471   41.4972 C.3     685      M_A    0.0000
   3963 H          86.7718   28.9442   39.5373 H       685      M_A    0.0000
   3964 H          86.9167   30.1537   40.7631 H       685      M_A    0.0000
   3965 H          85.8612   28.6203   42.3996 H       685      M_A    0.0000
   3966 H          85.7188   27.4108   41.1737 H       685      M_A    0.0000
   3967 C          87.7335   27.7471   41.8256 C.3     686      M_A    0.0000
   3968 C          88.0105   27.7490   43.3046 C.3     686      M_A    0.0000
   3969 H          87.8516   26.7527   41.4290 H       686      M_A    0.0000
   3970 H          88.4483   28.3706   41.3153 H       686      M_A    0.0000
   3971 H          88.0474   28.7607   43.6722 H       686      M_A    0.0000
   3972 H          87.2095   27.2577   43.8310 H       686      M_A    0.0000
   3973 C          89.3356   27.0468   43.6507 C.3     687      M_A    0.0000
   3974 C          90.2577   27.9297   44.4472 C.3     687      M_A    0.0000
   3975 H          89.1183   26.1473   44.2017 H       687      M_A    0.0000
   3976 H          89.8156   26.7411   42.7363 H       687      M_A    0.0000
   3977 H          89.6964   28.7164   44.9227 H       687      M_A    0.0000
   3978 H          90.7231   27.3620   45.2354 H       687      M_A    0.0000
   3979 C          91.3572   28.5619   43.5754 C.3     688      M_A    0.0000
   3980 C          92.7371   28.2835   44.1071 C.3     688      M_A    0.0000
   3981 H          91.2649   28.1832   42.5714 H       688      M_A    0.0000
   3982 H          91.1896   29.6245   43.5218 H       688      M_A    0.0000
   3983 H          93.4649   28.8672   43.5690 H       688      M_A    0.0000
   3984 H          92.8025   28.5830   45.1396 H       688      M_A    0.0000
   3985 C          93.1152   26.7956   43.9972 C.3     689      M_A    0.0000
   3986 C          94.5585   26.5471   44.3423 C.3     689      M_A    0.0000
   3987 H          92.4759   26.2258   44.6505 H       689      M_A    0.0000
   3988 H          92.9118   26.4589   42.9946 H       689      M_A    0.0000
   3989 H          95.1391   27.4368   44.1651 H       689      M_A    0.0000
   3990 H          94.6537   26.3193   45.3906 H       689      M_A    0.0000
   3991 C          95.1624   25.3901   43.5265 C.3     690      M_A    0.0000
   3992 C          96.4257   25.7925   42.8150 C.2     690      M_A    0.0000
   3993 H          95.3587   24.5638   44.1888 H       690      M_A    0.0000
   3994 H          94.4302   25.0484   42.8143 H       690      M_A    0.0000
   3995 H          96.2293   26.6188   42.1527 H       690      M_A    0.0000
   3996 H          97.1578   26.1342   43.5272 H       690      M_A    0.0000
   3997 C          82.9319   75.3374   34.4332 C.2     691      M_A    0.0000
   3998 C          81.8733   74.4996   33.7075 C.3     691      M_A    0.0000
   3999 H          82.7805   75.2769   35.5181 H       691      M_A    0.0000
   4000 H          82.8278   76.3945   34.1590 H       691      M_A    0.0000
   4001 H          81.9671   74.6327   32.6226 H       691      M_A    0.0000
   4002 H          82.0344   73.4333   33.9091 H       691      M_A    0.0000
   4003 C          80.4154   74.8809   34.1393 C.3     692      M_A    0.0000
   4004 C          79.4847   73.6638   34.1803 C.3     692      M_A    0.0000
   4005 H          80.4524   75.3594   35.1258 H       692      M_A    0.0000
   4006 H          80.0241   75.6302   33.4401 H       692      M_A    0.0000
   4007 H          79.2864   73.3074   33.1618 H       692      M_A    0.0000
   4008 H          79.9695   72.8373   34.7144 H       692      M_A    0.0000
   4009 C          78.1182   73.9841   34.8785 C.3     693      M_A    0.0000
   4010 C          77.1514   72.7956   34.8358 C.3     693      M_A    0.0000
   4011 H          78.3120   74.2741   35.9187 H       693      M_A    0.0000
   4012 H          77.6659   74.8548   34.3878 H       693      M_A    0.0000
   4013 H          77.7127   71.8532   34.8559 H       693      M_A    0.0000
   4014 H          76.5106   72.7997   35.7263 H       693      M_A    0.0000
   4015 C          76.2421   72.8151   33.5589 C.3     694      M_A    0.0000
   4016 C          75.3838   71.5511   33.4378 C.3     694      M_A    0.0000
   4017 H          75.5999   73.7038   33.5956 H       694      M_A    0.0000
   4018 H          76.8795   72.9233   32.6726 H       694      M_A    0.0000
   4019 H          74.6450   71.5191   34.2481 H       694      M_A    0.0000
   4020 H          74.8193   71.5684   32.4973 H       694      M_A    0.0000
   4021 C          76.2443   70.2417   33.4866 C.3     695      M_A    0.0000
   4022 C          75.4005   68.9832   33.2559 C.3     695      M_A    0.0000
   4023 H          77.0342   70.3092   32.7282 H       695      M_A    0.0000
   4024 H          76.7465   70.1846   34.4603 H       695      M_A    0.0000
   4025 H          75.6850   68.5079   32.3090 H       695      M_A    0.0000
   4026 H          75.5953   68.2493   34.0477 H       695      M_A    0.0000
   4027 C          73.8647   69.2954   33.2231 C.3     696      M_A    0.0000
   4028 C          73.0453   68.1236   32.6711 C.3     696      M_A    0.0000
   4029 H          73.5320   69.5413   34.2392 H       696      M_A    0.0000
   4030 H          73.6989   70.1912   32.6119 H       696      M_A    0.0000
   4031 H          73.0673   67.3959   33.1874 H       696      M_A    0.0000
   4032 H          72.2150   68.4474   32.7197 H       696      M_A    0.0000
   4033 C          73.2827   67.7800   31.4660 C.3     697      M_A    0.0000
   4034 C          72.6608   66.7505   31.1368 C.3     697      M_A    0.0000
   4035 H          73.0637   68.4559   30.9256 H       697      M_A    0.0000
   4036 H          74.1608   67.6505   31.3714 H       697      M_A    0.0000
   4037 H          71.9008   66.6905   31.6011 H       697      M_A    0.0000
   4038 H          72.4320   66.7935   30.2751 H       697      M_A    0.0000
   4039 C          73.3443   65.6909   31.3283 C.3     698      M_A    0.0000
   4040 C          72.7752   64.6745   30.8830 C.3     698      M_A    0.0000
   4041 H          74.1423   65.7893   30.9408 H       698      M_A    0.0000
   4042 H          73.4938   65.5992   32.2035 H       698      M_A    0.0000
   4043 H          71.9543   64.6080   31.2269 H       698      M_A    0.0000
   4044 H          72.6779   64.7412   29.9982 H       698      M_A    0.0000
   4045 C          73.4192   63.6055   31.1463 C.3     699      M_A    0.0000
   4046 C          73.3482   62.7713   30.2222 C.3     699      M_A    0.0000
   4047 H          74.2723   63.8151   31.3046 H       699      M_A    0.0000
   4048 H          73.0973   63.2543   31.9011 H       699      M_A    0.0000
   4049 H          72.6531   62.2271   30.3538 H       699      M_A    0.0000
   4050 H          73.2050   63.1867   29.4452 H       699      M_A    0.0000
   4051 C          74.4078   62.0683   30.1232 C.3     700      M_A    0.0000
   4052 C          74.3476   61.0244   30.8027 C.3     700      M_A    0.0000
   4053 H          74.5402   61.8668   29.2638 H       700      M_A    0.0000
   4054 H          75.1055   62.5616   30.3812 H       700      M_A    0.0000
   4055 H          74.2225   61.2261   31.6632 H       700      M_A    0.0000
   4056 H          73.6456   60.5346   30.5497 H       700      M_A    0.0000
   4057 C          75.4030   60.3163   30.6957 C.3     701      M_A    0.0000
   4058 C          75.3419   59.2715   31.3736 C.3     701      M_A    0.0000
   4059 H          75.5289   60.1158   29.8350 H       701      M_A    0.0000
   4060 H          76.1048   60.8057   30.9501 H       701      M_A    0.0000
   4061 H          75.6299   59.4281   32.2038 H       701      M_A    0.0000
   4062 H          74.4942   59.0009   31.4431 H       701      M_A    0.0000
   4063 C          76.0350   58.3269   30.8694 C.3     702      M_A    0.0000
   4064 C          76.2584   57.4148   31.6898 C.3     702      M_A    0.0000
   4065 H          75.6035   58.0009   30.1593 H       702      M_A    0.0000
   4066 H          76.8051   58.6638   30.5690 H       702      M_A    0.0000
   4067 H          75.5713   57.3356   32.2541 H       702      M_A    0.0000
   4068 H          76.3331   56.6330   31.2655 H       702      M_A    0.0000
   4069 C          77.3219   57.6203   32.3633 C.3     703      M_A    0.0000
   4070 C          78.1373   56.6828   32.2567 C.3     703      M_A    0.0000
   4071 H          77.6945   58.3829   32.0872 H       703      M_A    0.0000
   4072 H          77.1015   57.7383   33.2202 H       703      M_A    0.0000
   4073 H          78.0571   56.1271   32.9506 H       703      M_A    0.0000
   4074 H          77.9603   56.2051   31.5238 H       703      M_A    0.0000
   4075 C          79.3428   57.0952   32.1976 C.3     704      M_A    0.0000
   4076 C          79.8924   56.7953   31.1191 C.3     704      M_A    0.0000
   4077 H          79.3497   57.9808   32.3087 H       704      M_A    0.0000
   4078 H          79.7997   56.7475   32.8810 H       704      M_A    0.0000
   4079 H          80.3741   56.0504   31.2179 H       704      M_A    0.0000
   4080 H          79.2747   56.6208   30.4989 H       704      M_A    0.0000
   4081 C          80.6545   57.7239   30.6904 C.3     705      M_A    0.0000
   4082 C          81.8021   57.6542   31.1735 C.3     705      M_A    0.0000
   4083 H          80.6939   57.6757   29.8000 H       705      M_A    0.0000
   4084 H          80.2865   58.5126   30.8884 H       705      M_A    0.0000
   4085 H          81.7779   57.8361   32.0471 H       705      M_A    0.0000
   4086 H          82.1180   56.8233   31.0933 H       705      M_A    0.0000
   4087 C          82.6141   58.4591   30.6083 C.3     706      M_A    0.0000
   4088 C          82.9144   59.4209   31.3430 C.3     706      M_A    0.0000
   4089 H          83.3497   58.0099   30.3763 H       706      M_A    0.0000
   4090 H          82.2454   58.7556   29.8514 H       706      M_A    0.0000
   4091 H          82.2997   59.5213   31.9823 H       706      M_A    0.0000
   4092 H          83.6895   59.2606   31.7556 H       706      M_A    0.0000
   4093 C          83.0133   60.5136   30.6925 C.3     707      M_A    0.0000
   4094 C          84.1501   61.0177   30.7854 C.3     707      M_A    0.0000
   4095 H          82.8168   60.3573   29.8360 H       707      M_A    0.0000
   4096 H          82.3991   61.0857   30.9961 H       707      M_A    0.0000
   4097 H          84.2150   61.7274   30.2480 H       707      M_A    0.0000
   4098 H          84.2873   61.3123   31.6167 H       707      M_A    0.0000
   4099 C          85.0722   60.1891   30.4854 C.3     708      M_A    0.0000
   4100 C          85.8606   60.6471   29.6348 C.3     708      M_A    0.0000
   4101 H          85.5162   59.9714   31.2284 H       708      M_A    0.0000
   4102 H          84.6968   59.4383   30.1819 H       708      M_A    0.0000
   4103 H          86.4819   60.0384   29.4342 H       708      M_A    0.0000
   4104 H          85.4236   60.8264   28.8775 H       708      M_A    0.0000
   4105 C          86.4408   61.7098   30.0361 C.3     709      M_A    0.0000
   4106 C          87.6739   61.6726   29.8539 C.3     709      M_A    0.0000
   4107 H          86.0890   62.4091   29.6072 H       709      M_A    0.0000
   4108 H          86.2628   61.8248   30.9031 H       709      M_A    0.0000
   4109 H          88.0140   60.9296   30.2131 H       709      M_A    0.0000
   4110 H          87.8533   61.6403   28.9802 H       709      M_A    0.0000
   4111 C          88.2677   62.6823   30.3585 C.3     710      M_A    0.0000
   4112 C          89.1304   62.3531   31.1966 C.3     710      M_A    0.0000
   4113 H          88.6443   63.1531   29.7003 H       710      M_A    0.0000
   4114 H          87.6593   63.2138   30.7381 H       710      M_A    0.0000
   4115 H          89.4362   63.0762   31.6212 H       710      M_A    0.0000
   4116 H          88.7675   61.8252   31.8182 H       710      M_A    0.0000
   4117 C          90.1149   61.7428   30.6627 C.3     711      M_A    0.0000
   4118 C          91.1603   61.8552   31.3330 C.3     711      M_A    0.0000
   4119 H          89.9025   60.8809   30.5690 H       711      M_A    0.0000
   4120 H          90.2422   62.0662   29.8405 H       711      M_A    0.0000
   4121 H          91.5636   62.6286   31.1438 H       711      M_A    0.0000
   4122 H          90.9650   61.8743   32.2038 H       711      M_A    0.0000
   4123 C          91.9785   60.9010   31.1161 C.3     712      M_A    0.0000
   4124 C          92.7527   60.7150   32.0758 C.2     712      M_A    0.0000
   4125 H          91.5149   60.1570   30.9482 H       712      M_A    0.0000
   4126 H          92.4450   61.0844   30.3776 H       712      M_A    0.0000
   4127 H          93.2163   61.4590   32.2437 H       712      M_A    0.0000
   4128 H          92.2861   60.5316   32.8143 H       712      M_A    0.0000
   4129 C          88.4192   61.7146   11.9494 C.2     713      M_A    0.0000
   4130 C          87.2064   61.0129   11.3284 C.3     713      M_A    0.0000
   4131 H          88.4238   61.5663   13.0363 H       713      M_A    0.0000
   4132 H          88.3557   62.7965   11.7793 H       713      M_A    0.0000
   4133 H          87.0681   61.3197   10.5732 H       713      M_A    0.0000
   4134 H          87.4647   60.2344   11.2247 H       713      M_A    0.0000
   4135 C          86.1877   60.9995   11.9264 C.3     714      M_A    0.0000
   4136 C          85.9924   61.9939   12.4806 C.3     714      M_A    0.0000
   4137 H          85.5708   60.8432   11.3986 H       714      M_A    0.0000
   4138 H          86.2034   60.3729   12.4656 H       714      M_A    0.0000
   4139 H          86.4557   62.5960   12.1544 H       714      M_A    0.0000
   4140 H          85.2037   62.2223   12.3836 H       714      M_A    0.0000
   4141 C          86.2270   61.9163   13.6358 C.3     715      M_A    0.0000
   4142 C          85.6561   62.7086   14.2526 C.3     715      M_A    0.0000
   4143 H          86.0297   61.1572   13.8974 H       715      M_A    0.0000
   4144 H          87.0415   62.0021   13.7486 H       715      M_A    0.0000
   4145 H          85.6762   63.4384   13.8647 H       715      M_A    0.0000
   4146 H          84.8597   62.4966   14.3186 H       715      M_A    0.0000
   4147 C          86.1059   62.8412   15.3369 C.3     716      M_A    0.0000
   4148 C          85.5200   62.2402   16.1304 C.3     716      M_A    0.0000
   4149 H          86.8974   62.6027   15.3281 H       716      M_A    0.0000
   4150 H          86.1023   63.6450   15.5304 H       716      M_A    0.0000
   4151 H          84.9722   62.7299   16.5094 H       716      M_A    0.0000
   4152 H          85.0874   61.6369   15.7666 H       716      M_A    0.0000
   4153 C          86.2302   61.7620   16.9443 C.3     717      M_A    0.0000
   4154 C          85.8179   61.8913   18.0155 C.3     717      M_A    0.0000
   4155 H          86.3287   60.9591   16.7735 H       717      M_A    0.0000
   4156 H          86.9774   62.1109   16.8842 H       717      M_A    0.0000
   4157 H          85.4656   62.6349   18.0958 H       717      M_A    0.0000
   4158 H          85.2270   61.3317   18.1612 H       717      M_A    0.0000
   4159 C          86.6601   61.7783   18.8361 C.3     718      M_A    0.0000
   4160 C          86.5060   60.8428   19.4957 C.3     718      M_A    0.0000
   4161 H          87.3955   61.7420   18.4600 H       718      M_A    0.0000
   4162 H          86.6672   62.4585   19.3061 H       718      M_A    0.0000
   4163 H          85.8669   60.9587   20.0072 H       718      M_A    0.0000
   4164 H          86.3169   60.1910   19.0235 H       718      M_A    0.0000
   4165 C          87.4642   60.5837   20.1362 C.3     719      M_A    0.0000
   4166 C          87.1944   60.1859   21.1864 C.3     719      M_A    0.0000
   4167 H          87.9143   60.0232   19.7278 H       719      M_A    0.0000
   4168 H          87.9324   61.2620   20.2017 H       719      M_A    0.0000
   4169 H          86.6855   60.7144   21.5676 H       719      M_A    0.0000
   4170 H          86.7875   59.4691   21.1221 H       719      M_A    0.0000
   4171 C          88.1494   60.0223   21.8623 C.3     720      M_A    0.0000
   4172 C          87.8789   59.8883   22.9772 C.3     720      M_A    0.0000
   4173 H          88.5593   59.3587   21.5883 H       720      M_A    0.0000
   4174 H          88.6557   60.6693   21.7692 H       720      M_A    0.0000
   4175 H          87.2564   60.3929   23.1805 H       720      M_A    0.0000
   4176 H          87.6138   59.1172   23.1139 H       720      M_A    0.0000
   4177 C          88.7952   60.1078   23.6897 C.3     721      M_A    0.0000
   4178 C          88.4785   60.1905   24.7974 C.3     721      M_A    0.0000
   4179 H          89.3539   59.5052   23.5988 H       721      M_A    0.0000
   4180 H          89.1602   60.8086   23.4462 H       721      M_A    0.0000
   4181 H          89.0226   59.7951   25.2781 H       721      M_A    0.0000
   4182 H          88.4829   60.9823   25.0352 H       721      M_A    0.0000
   4183 C          87.4031   59.7410   24.9902 C.3     722      M_A    0.0000
   4184 C          87.0335   59.9367   26.0669 C.3     722      M_A    0.0000
   4185 H          86.8753   60.0695   24.4452 H       722      M_A    0.0000
   4186 H          87.4233   58.9281   24.8408 H       722      M_A    0.0000
   4187 H          86.6696   59.2588   26.3693 H       722      M_A    0.0000
   4188 H          87.6752   60.1023   26.5612 H       722      M_A    0.0000
   4189 C          86.2690   60.8358   26.1213 C.3     723      M_A    0.0000
   4190 C          85.7919   60.9418   27.1678 C.3     723      M_A    0.0000
   4191 H          86.6631   61.5334   25.9174 H       723      M_A    0.0000
   4192 H          85.6808   60.7202   25.5520 H       723      M_A    0.0000
   4193 H          85.2970   61.6038   27.1879 H       723      M_A    0.0000
   4194 H          85.3168   60.2851   27.3306 H       723      M_A    0.0000
   4195 C          86.6024   61.0463   28.0209 C.3     724      M_A    0.0000
   4196 C          86.5495   60.1804   28.7834 C.3     724      M_A    0.0000
   4197 H          87.3524   61.0732   27.6741 H       724      M_A    0.0000
   4198 H          86.4926   61.7698   28.4056 H       724      M_A    0.0000
   4199 H          86.2382   59.5043   28.4234 H       724      M_A    0.0000
   4200 H          87.3097   59.9831   29.0416 H       724      M_A    0.0000
   4201 C          85.8865   60.4510   29.7230 C.3     725      M_A    0.0000
   4202 C          86.3382   60.0503   30.7076 C.3     725      M_A    0.0000
   4203 H          85.8036   61.2726   29.7629 H       725      M_A    0.0000
   4204 H          85.1281   60.1410   29.6122 H       725      M_A    0.0000
   4205 H          87.1620   60.0152   30.6478 H       725      M_A    0.0000
   4206 H          86.1671   60.5678   31.3292 H       725      M_A    0.0000
   4207 C          85.9303   58.9763   30.9829 C.3     726      M_A    0.0000
   4208 C          86.7794   58.2019   31.0981 C.3     726      M_A    0.0000
   4209 H          85.4964   59.0279   31.6847 H       726      M_A    0.0000
   4210 H          85.4025   58.7330   30.3949 H       726      M_A    0.0000
   4211 H          86.4700   57.4772   31.3485 H       726      M_A    0.0000
   4212 H          87.1404   58.0660   30.3669 H       726      M_A    0.0000
   4213 C          87.6025   58.5515   31.8700 C.3     727      M_A    0.0000
   4214 C          88.4549   57.7799   31.9805 C.3     727      M_A    0.0000
   4215 H          87.9086   59.2784   31.6222 H       727      M_A    0.0000
   4216 H          87.2423   58.6829   32.6025 H       727      M_A    0.0000
   4217 H          88.6386   57.6730   32.7795 H       727      M_A    0.0000
   4218 H          88.2105   57.0444   31.6927 H       727      M_A    0.0000
   4219 C          89.4332   58.1080   31.4054 C.3     728      M_A    0.0000
   4220 C          90.3462   57.4603   31.6898 C.3     728      M_A    0.0000
   4221 H          89.2932   58.0591   30.5920 H       728      M_A    0.0000
   4222 H          89.5866   58.9031   31.5724 H       728      M_A    0.0000
   4223 H          90.5135   57.5442   32.4950 H       728      M_A    0.0000
   4224 H          90.1767   56.6609   31.5646 H       728      M_A    0.0000
   4225 C          91.3095   57.7471   31.0688 C.3     729      M_A    0.0000
   4226 C          92.1788   58.0949   31.7451 C.3     729      M_A    0.0000
   4227 H          91.5429   57.0921   30.6215 H       729      M_A    0.0000
   4228 H          91.1123   58.3435   30.5314 H       729      M_A    0.0000
   4229 H          92.1179   58.9066   31.8900 H       729      M_A    0.0000
   4230 H          92.1343   57.7186   32.4799 H       729      M_A    0.0000
   4231 C          93.2354   57.8718   31.2663 C.3     730      M_A    0.0000
   4232 C          93.6865   58.8007   30.7489 C.2     730      M_A    0.0000
   4233 H          93.7449   57.6020   31.8590 H       730      M_A    0.0000
   4234 H          93.1564   57.2545   30.7221 H       730      M_A    0.0000
   4235 H          93.1770   59.0705   30.1563 H       730      M_A    0.0000
   4236 H          93.7655   59.4180   31.2932 H       730      M_A    0.0000
   4237 C         110.6122   66.1192    9.0419 C.2     731      M_A    0.0000
   4238 C         109.4580   65.8264    9.8477 C.3     731      M_A    0.0000
   4239 H         111.2733   65.3311    9.0729 H       731      M_A    0.0000
   4240 H         111.1090   66.9368    9.4211 H       731      M_A    0.0000
   4241 H         108.9547   66.6955   10.0721 H       731      M_A    0.0000
   4242 H         108.8023   65.2324    9.3222 H       731      M_A    0.0000
   4243 C         109.8123   65.1464   11.1025 C.3     732      M_A    0.0000
   4244 C         108.6712   64.5443   11.7369 C.3     732      M_A    0.0000
   4245 H         110.5235   64.4300   10.9022 H       732      M_A    0.0000
   4246 H         110.2501   65.8281   11.7371 H       732      M_A    0.0000
   4247 H         107.8202   65.0772   11.5116 H       732      M_A    0.0000
   4248 H         108.5280   63.5917   11.3749 H       732      M_A    0.0000
   4249 C         108.8163   64.4790   13.1988 C.3     733      M_A    0.0000
   4250 C         107.6822   63.8626   13.8319 C.3     733      M_A    0.0000
   4251 H         109.6736   63.9561   13.4240 H       733      M_A    0.0000
   4252 H         108.9480   65.4328   13.5620 H       733      M_A    0.0000
   4253 H         107.9798   63.0257   14.3516 H       733      M_A    0.0000
   4254 H         107.2692   64.5065   14.5203 H       733      M_A    0.0000
   4255 C         106.6455   63.4755   12.8635 C.3     734      M_A    0.0000
   4256 C         105.5275   62.8261   13.4924 C.3     734      M_A    0.0000
   4257 H         106.3288   64.3168   12.3626 H       734      M_A    0.0000
   4258 H         107.0650   62.8529   12.1596 H       734      M_A    0.0000
   4259 H         105.8610   62.1365   14.1797 H       734      M_A    0.0000
   4260 H         104.9666   63.5144   14.0127 H       734      M_A    0.0000
   4261 C         104.6596   62.1449   12.5203 C.3     735      M_A    0.0000
   4262 C         103.5192   61.5310   13.1444 C.3     735      M_A    0.0000
   4263 H         104.3509   62.8281   11.8154 H       735      M_A    0.0000
   4264 H         105.2134   61.4353   12.0214 H       735      M_A    0.0000
   4265 H         102.8729   61.1754   12.4268 H       735      M_A    0.0000
   4266 H         103.8167   60.7191   13.7025 H       735      M_A    0.0000
   4267 C         102.7915   62.4647   14.0168 C.3     736      M_A    0.0000
   4268 C         101.5882   61.8864   14.5505 C.3     736      M_A    0.0000
   4269 H         103.4133   62.7555   14.7835 H       736      M_A    0.0000
   4270 H         102.5671   63.3137   13.4802 H       736      M_A    0.0000
   4271 H         100.8463   62.5980   14.5994 H       736      M_A    0.0000
   4272 H         101.2455   61.1448   13.9247 H       736      M_A    0.0000
   4273 C         101.7899   61.3190   15.8920 C.3     737      M_A    0.0000
   4274 C         100.5805   61.3149   16.6694 C.3     737      M_A    0.0000
   4275 H         102.1508   60.3600   15.7957 H       737      M_A    0.0000
   4276 H         102.5184   61.8617   16.3756 H       737      M_A    0.0000
   4277 H         100.1987   62.2684   16.7330 H       737      M_A    0.0000
   4278 H          99.8644   60.7401   16.2049 H       737      M_A    0.0000
   4279 C         100.7941   60.7982   18.0295 C.3     738      M_A    0.0000
   4280 C          99.7296   61.1632   18.9244 C.3     738      M_A    0.0000
   4281 H         100.8822   59.7738   17.9852 H       738      M_A    0.0000
   4282 H         101.6913   61.1569   18.3836 H       738      M_A    0.0000
   4283 H          99.4682   62.1478   18.7788 H       738      M_A    0.0000
   4284 H          98.8910   60.6019   18.7227 H       738      M_A    0.0000
   4285 C         100.0983   60.9743   20.3354 C.3     739      M_A    0.0000
   4286 C          99.1261   60.1953   21.0530 C.3     739      M_A    0.0000
   4287 H         101.0191   60.5168   20.3792 H       739      M_A    0.0000
   4288 H         100.2059   61.8978   20.7766 H       739      M_A    0.0000
   4289 H          98.2161   60.6758   21.0487 H       739      M_A    0.0000
   4290 H          98.9844   59.2898   20.5851 H       739      M_A    0.0000
   4291 C          99.5265   59.9511   22.4468 C.3     740      M_A    0.0000
   4292 C          99.4689   58.5571   22.7939 C.3     740      M_A    0.0000
   4293 H         100.4809   60.3102   22.5855 H       740      M_A    0.0000
   4294 H          98.9128   60.4952   23.0684 H       740      M_A    0.0000
   4295 H          98.5290   58.3176   23.1378 H       740      M_A    0.0000
   4296 H          99.6345   57.9785   21.9591 H       740      M_A    0.0000
   4297 C         100.4559   58.1978   23.8231 C.3     741      M_A    0.0000
   4298 C          99.8740   58.1299   25.1360 C.3     741      M_A    0.0000
   4299 H         100.8774   57.2919   23.5766 H       741      M_A    0.0000
   4300 H         101.2164   58.8910   23.8096 H       741      M_A    0.0000
   4301 H         100.5022   58.5678   25.8235 H       741      M_A    0.0000
   4302 H          98.9933   58.6617   25.1596 H       741      M_A    0.0000
   4303 C          99.6037   56.7464   25.5548 C.3     742      M_A    0.0000
   4304 C          99.5524   56.6103   26.9852 C.3     742      M_A    0.0000
   4305 H          98.7127   56.4422   25.1392 H       742      M_A    0.0000
   4306 H         100.3346   56.1339   25.1681 H       742      M_A    0.0000
   4307 H          99.5765   55.6151   27.2460 H       742      M_A    0.0000
   4308 H         100.3808   57.0477   27.4112 H       742      M_A    0.0000
   4309 C          98.3450   57.2219   27.5603 C.3     743      M_A    0.0000
   4310 C          98.6563   58.2875   28.4739 C.3     743      M_A    0.0000
   4311 H          97.7550   57.5747   26.7945 H       743      M_A    0.0000
   4312 H          97.8006   56.4927   28.0409 H       743      M_A    0.0000
   4313 H          99.0821   59.0747   27.9659 H       743      M_A    0.0000
   4314 H          97.7934   58.6461   28.9049 H       743      M_A    0.0000
   4315 C          99.5750   57.8580   29.5387 C.3     744      M_A    0.0000
   4316 C          99.2961   58.5042   30.7924 C.3     744      M_A    0.0000
   4317 H          99.5054   56.8368   29.6450 H       744      M_A    0.0000
   4318 H         100.5405   58.0595   29.2451 H       744      M_A    0.0000
   4319 H         100.0503   58.3099   31.4650 H       744      M_A    0.0000
   4320 H          99.2694   59.5250   30.6650 H       744      M_A    0.0000
   4321 C          98.0183   58.0655   31.3733 C.3     745      M_A    0.0000
   4322 C          97.3129   59.1421   32.0139 C.3     745      M_A    0.0000
   4323 H          97.4379   57.6574   30.6280 H       745      M_A    0.0000
   4324 H          98.2028   57.3125   32.0501 H       745      M_A    0.0000
   4325 H          96.9142   58.8209   32.9066 H       745      M_A    0.0000
   4326 H          97.9644   59.9063   32.2391 H       745      M_A    0.0000
   4327 C          96.2289   59.6751   31.1751 C.3     746      M_A    0.0000
   4328 C          95.2350   60.3709   31.9465 C.2     746      M_A    0.0000
   4329 H          96.6344   60.3062   30.4706 H       746      M_A    0.0000
   4330 H          95.7949   58.8971   30.6600 H       746      M_A    0.0000
   4331 H          94.8295   59.7398   32.6510 H       746      M_A    0.0000
   4332 H          95.6690   61.1490   32.4616 H       746      M_A    0.0000
   4333 C          37.7342   12.4102   17.3564 C.2     747      M_A    0.0000
   4334 C          36.3476   12.3326   16.7081 C.3     747      M_A    0.0000
   4335 H          37.6774   12.9653   18.3010 H       747      M_A    0.0000
   4336 H          38.4229   12.9641   16.7065 H       747      M_A    0.0000
   4337 H          36.3230   11.5231   15.9682 H       747      M_A    0.0000
   4338 H          35.5914   12.0905   17.4652 H       747      M_A    0.0000
   4339 C          35.9454   13.6739   16.0033 C.3     748      M_A    0.0000
   4340 C          36.7832   14.9714   16.6425 C.3     748      M_A    0.0000
   4341 H          36.1841   13.5664   14.8358 H       748      M_A    0.0000
   4342 H          34.7672   13.8597   16.0974 H       748      M_A    0.0000
   4343 H          36.2448   15.3566   17.6392 H       748      M_A    0.0000
   4344 H          37.8867   14.6325   16.9571 H       748      M_A    0.0000
   4345 C          36.8999   16.2736   15.5407 C.3     749      M_A    0.0000
   4346 C          37.8315   17.5267   16.1373 C.3     749      M_A    0.0000
   4347 H          37.3639   15.8700   14.5144 H       749      M_A    0.0000
   4348 H          35.7978   16.6655   15.2888 H       749      M_A    0.0000
   4349 H          37.2765   18.0467   17.0610 H       749      M_A    0.0000
   4350 H          38.8699   17.1034   16.5545 H       749      M_A    0.0000
   4351 C          38.1571   18.7139   14.9508 C.3     750      M_A    0.0000
   4352 C          39.6021   19.5071   15.2282 C.3     750      M_A    0.0000
   4353 H          38.1768   18.1893   13.8756 H       750      M_A    0.0000
   4354 H          37.2547   19.4993   14.9334 H       750      M_A    0.0000
   4355 H          39.6862   20.4666   14.5183 H       750      M_A    0.0000
   4356 H          39.6400   19.9087   16.3546 H       750      M_A    0.0000
   4357 C          40.9566   18.4999   14.9562 C.3     751      M_A    0.0000
   4358 C          42.3920   19.2373   15.3923 C.3     751      M_A    0.0000
   4359 H          40.8127   17.4850   15.5734 H       751      M_A    0.0000
   4360 H          40.9860   18.1971   13.7991 H       751      M_A    0.0000
   4361 H          42.5074   20.2815   14.8197 H       751      M_A    0.0000
   4362 H          42.3864   19.4861   16.5627 H       751      M_A    0.0000
   4363 C          43.7531   18.2635   15.0425 C.3     752      M_A    0.0000
   4364 C          45.1242   18.7784   15.8481 C.3     752      M_A    0.0000
   4365 H          43.5038   17.1315   15.3389 H       752      M_A    0.0000
   4366 H          43.9425   18.2756   13.8611 H       752      M_A    0.0000
   4367 H          44.9772   18.6540   17.0290 H       752      M_A    0.0000
   4368 H          46.0590   18.0960   15.5445 H       752      M_A    0.0000
   4369 C          45.5006   20.4112   15.5085 C.3     753      M_A    0.0000
   4370 C          46.4147   21.1154   16.7180 C.3     753      M_A    0.0000
   4371 H          46.0879   20.4631   14.4674 H       753      M_A    0.0000
   4372 H          44.4809   21.0188   15.3584 H       753      M_A    0.0000
   4373 H          46.0188   20.7615   17.7902 H       753      M_A    0.0000
   4374 H          47.5524   20.7543   16.6354 H       753      M_A    0.0000
   4375 C          46.3723   22.8233   16.6511 C.3     754      M_A    0.0000
   4376 C          47.8033   23.5133   17.1712 C.3     754      M_A    0.0000
   4377 H          46.1396   23.1595   15.5267 H       754      M_A    0.0000
   4378 H          45.4614   23.2130   17.3218 H       754      M_A    0.0000
   4379 H          48.2943   22.8411   18.0307 H       754      M_A    0.0000
   4380 H          48.5915   23.5504   16.2717 H       754      M_A    0.0000
   4381 C          47.5777   25.0979   17.7721 C.3     755      M_A    0.0000
   4382 C          49.0225   25.8312   18.1832 C.3     755      M_A    0.0000
   4383 H          47.0093   25.7473   16.9434 H       755      M_A    0.0000
   4384 H          46.8562   25.0498   18.7253 H       755      M_A    0.0000
   4385 H          49.8405   25.0017   18.4559 H       755      M_A    0.0000
   4386 H          49.4521   26.4435   17.2494 H       755      M_A    0.0000
   4387 C          48.8540   26.8961   19.5101 C.3     756      M_A    0.0000
   4388 C          50.3103   27.5820   19.9608 C.3     756      M_A    0.0000
   4389 H          48.0696   27.7520   19.2205 H       756      M_A    0.0000
   4390 H          48.3818   26.2943   20.4301 H       756      M_A    0.0000
   4391 H          50.1202   28.4851   20.7223 H       756      M_A    0.0000
   4392 H          50.9800   26.7782   20.5413 H       756      M_A    0.0000
   4393 C          51.1928   28.1688   18.6192 C.3     757      M_A    0.0000
   4394 C          52.8415   27.9682   18.8087 C.3     757      M_A    0.0000
   4395 H          50.8208   27.6003   17.6343 H       757      M_A    0.0000
   4396 H          50.9356   29.3271   18.4652 H       757      M_A    0.0000
   4397 H          53.4146   28.9739   18.5060 H       757      M_A    0.0000
   4398 H          53.0998   27.7581   19.9579 H       757      M_A    0.0000
   4399 C          53.4504   26.6807   17.8628 C.3     758      M_A    0.0000
   4400 C          55.1062   26.5104   18.0156 C.3     758      M_A    0.0000
   4401 H          52.9020   25.6689   18.1898 H       758      M_A    0.0000
   4402 H          53.1618   26.8734   16.7177 H       758      M_A    0.0000
   4403 H          55.3772   26.0965   19.1050 H       758      M_A    0.0000
   4404 H          55.5097   25.7022   17.2309 H       758      M_A    0.0000
   4405 C          55.9352   27.9843   17.7641 C.3     759      M_A    0.0000
   4406 C          57.5821   27.8346   18.0082 C.3     759      M_A    0.0000
   4407 H          55.7184   28.3635   16.6502 H       759      M_A    0.0000
   4408 H          55.4846   28.8111   18.5023 H       759      M_A    0.0000
   4409 H          57.7945   27.3070   19.0608 H       759      M_A    0.0000
   4410 H          58.0589   27.1289   17.1678 H       759      M_A    0.0000
   4411 C          58.3817   29.3455   17.9777 C.3     760      M_A    0.0000
   4412 C          60.0451   29.1826   18.0046 C.3     760      M_A    0.0000
   4413 H          58.0436   29.9410   16.9965 H       760      M_A    0.0000
   4414 H          58.0177   29.9934   18.9153 H       760      M_A    0.0000
   4415 H          60.3674   28.4046   18.8546 H       760      M_A    0.0000
   4416 H          60.4303   28.7340   16.9644 H       760      M_A    0.0000
   4417 C          60.8373   30.6705   18.2902 C.3     761      M_A    0.0000
   4418 C          62.4843   30.5731   18.0214 C.3     761      M_A    0.0000
   4419 H          60.3549   31.5063   17.5829 H       761      M_A    0.0000
   4420 H          60.6250   31.0103   19.4176 H       761      M_A    0.0000
   4421 H          62.9652   29.7308   18.7220 H       761      M_A    0.0000
   4422 H          62.6967   30.2425   16.8913 H       761      M_A    0.0000
   4423 C          63.2784   32.0575   18.3199 C.3     762      M_A    0.0000
   4424 C          64.9218   31.9666   18.0282 C.3     762      M_A    0.0000
   4425 H          62.7858   32.9035   17.6319 H       762      M_A    0.0000
   4426 H          63.0803   32.3794   19.4551 H       762      M_A    0.0000
   4427 H          65.3576   30.9368   18.4537 H       762      M_A    0.0000
   4428 H          65.1300   31.9672   16.8500 H       762      M_A    0.0000
   4429 C          65.7788   33.2636   18.7399 C.3     763      M_A    0.0000
   4430 C          67.4336   33.0972   18.5721 C.3     763      M_A    0.0000
   4431 H          65.4164   34.2872   18.2375 H       763      M_A    0.0000
   4432 H          65.4884   33.3279   19.8988 H       763      M_A    0.0000
   4433 H          67.9078   34.1132   18.1541 H       763      M_A    0.0000
   4434 H          67.9362   32.8971   19.6393 H       763      M_A    0.0000
   4435 C          67.8526   31.8187   17.5172 C.3     764      M_A    0.0000
   4436 C          69.4978   31.5233   17.5018 C.3     764      M_A    0.0000
   4437 H          67.2620   30.8334   17.8518 H       764      M_A    0.0000
   4438 H          67.4740   32.0885   16.4147 H       764      M_A    0.0000
   4439 H          70.0989   32.5544   17.4165 H       764      M_A    0.0000
   4440 H          69.8329   31.0145   18.5316 H       764      M_A    0.0000
   4441 C          69.9616   30.5064   16.2081 C.3     765      M_A    0.0000
   4442 C          71.5755   30.0782   16.2860 C.3     765      M_A    0.0000
   4443 H          69.2758   29.5260   16.2233 H       765      M_A    0.0000
   4444 H          69.7355   31.0679   15.1760 H       765      M_A    0.0000
   4445 H          72.2416   30.8807   15.6996 H       765      M_A    0.0000
   4446 H          71.9480   30.0875   17.4230 H       765      M_A    0.0000
   4447 C          71.8677   28.5296   15.6231 C.3     766      M_A    0.0000
   4448 C          72.7439   27.5524   16.6582 C.3     766      M_A    0.0000
   4449 H          70.8183   28.0164   15.3645 H       766      M_A    0.0000
   4450 H          72.4521   28.6577   14.5869 H       766      M_A    0.0000
   4451 H          72.2657   27.5831   17.7545 H       766      M_A    0.0000
   4452 H          72.6905   26.4146   16.2918 H       766      M_A    0.0000
   4453 C          74.3847   28.0223   16.7593 C.3     767      M_A    0.0000
   4454 C          74.7730   28.6484   18.2598 C.3     767      M_A    0.0000
   4455 H          75.0731   27.0734   16.5201 H       767      M_A    0.0000
   4456 H          74.6072   28.8319   15.9069 H       767      M_A    0.0000
   4457 H          73.7766   28.9564   18.8462 H       767      M_A    0.0000
   4458 H          75.3185   27.8154   18.9232 H       767      M_A    0.0000
   4459 C          75.7915   30.0170   18.1470 C.3     768      M_A    0.0000
   4460 C          77.3716   29.6670   18.5650 C.3     768      M_A    0.0000
   4461 H          75.7470   30.4397   17.0285 H       768      M_A    0.0000
   4462 H          75.3603   30.8781   18.8570 H       768      M_A    0.0000
   4463 H          77.4954   29.6880   19.7549 H       768      M_A    0.0000
   4464 H          77.6545   28.5601   18.2096 H       768      M_A    0.0000
   4465 C          78.4833   30.7681   17.8758 C.3     769      M_A    0.0000
   4466 C          79.8529   30.9570   18.8152 C.3     769      M_A    0.0000
   4467 H          78.7844   30.3799   16.7848 H       769      M_A    0.0000
   4468 H          77.9391   31.8232   17.7270 H       769      M_A    0.0000
   4469 H          79.7478   31.9306   19.5028 H       769      M_A    0.0000
   4470 H          79.9743   30.0250   19.5556 H       769      M_A    0.0000
   4471 C          81.2714   31.0994   17.8714 C.3     770      M_A    0.0000
   4472 C          82.3822   32.1472   18.5515 C.3     770      M_A    0.0000
   4473 H          81.7579   30.0142   17.7403 H       770      M_A    0.0000
   4474 H          80.9698   31.4754   16.7763 H       770      M_A    0.0000
   4475 H          83.4383   32.0405   17.9992 H       770      M_A    0.0000
   4476 H          82.0265   33.2791   18.3969 H       770      M_A    0.0000
   4477 C          82.6030   31.8622   20.2227 C.3     771      M_A    0.0000
   4478 C          84.0844   32.4112   20.7687 C.3     771      M_A    0.0000
   4479 H          81.7192   32.3983   20.8254 H       771      M_A    0.0000
   4480 H          82.4982   30.6886   20.4310 H       771      M_A    0.0000
   4481 H          84.1412   32.3216   21.9605 H       771      M_A    0.0000
   4482 H          84.9625   31.7267   20.3305 H       771      M_A    0.0000
   4483 C          84.3776   34.0357   20.3236 C.3     772      M_A    0.0000
   4484 C          86.0098   34.3729   20.1962 C.3     772      M_A    0.0000
   4485 H          83.8309   34.2548   19.2820 H       772      M_A    0.0000
   4486 H          83.8721   34.7551   21.1350 H       772      M_A    0.0000
   4487 H          86.6084   33.8459   21.0881 H       772      M_A    0.0000
   4488 H          86.4438   33.9210   19.1769 H       772      M_A    0.0000
   4489 C          86.3294   36.0520   20.2347 C.3     773      M_A    0.0000
   4490 C          87.1166   36.5788   18.8574 C.3     773      M_A    0.0000
   4491 H          85.2949   36.6386   20.3656 H       773      M_A    0.0000
   4492 H          86.9883   36.2971   21.2029 H       773      M_A    0.0000
   4493 H          86.3882   36.4966   17.9117 H       773      M_A    0.0000
   4494 H          87.4075   37.7342   18.9676 H       773      M_A    0.0000
   4495 C          88.5364   35.6810   18.5391 C.3     774      M_A    0.0000
   4496 C          88.9035   35.6332   16.9090 C.3     774      M_A    0.0000
   4497 H          89.4440   36.1653   19.1500 H       774      M_A    0.0000
   4498 H          88.3928   34.5703   18.9600 H       774      M_A    0.0000
   4499 H          88.3568   36.5318   16.3388 H       774      M_A    0.0000
   4500 H          90.0789   35.7889   16.7485 H       774      M_A    0.0000
   4501 C          88.4391   34.1564   16.1833 C.3     775      M_A    0.0000
   4502 C          89.6233   33.5471   15.1731 C.3     775      M_A    0.0000
   4503 H          88.1882   33.3653   17.0451 H       775      M_A    0.0000
   4504 H          87.4263   34.3297   15.5704 H       775      M_A    0.0000
   4505 H          89.8533   34.3257   14.2942 H       775      M_A    0.0000
   4506 H          90.6446   33.4015   15.7792 H       775      M_A    0.0000
   4507 C          89.1758   32.0498   14.4796 C.3     776      M_A    0.0000
   4508 C          90.3545   31.4467   13.4592 C.3     776      M_A    0.0000
   4509 H          88.9550   31.2684   15.3584 H       776      M_A    0.0000
   4510 H          88.1496   32.1932   13.8814 H       776      M_A    0.0000
   4511 H          90.0980   31.7275   12.3248 H       776      M_A    0.0000
   4512 H          91.4102   31.9521   13.7079 H       776      M_A    0.0000
   4513 C          90.5132   29.7490   13.5844 C.3     777      M_A    0.0000
   4514 C          91.8307   29.1714   12.7332 C.3     777      M_A    0.0000
   4515 H          90.6104   29.4549   14.7401 H       777      M_A    0.0000
   4516 H          89.5089   29.2372   13.1829 H       777      M_A    0.0000
   4517 H          91.9050   29.7181   11.6715 H       777      M_A    0.0000
   4518 H          92.8418   29.4239   13.3211 H       777      M_A    0.0000
   4519 C          91.7482   27.4827   12.4789 C.3     778      M_A    0.0000
   4520 C          93.1745   26.8641   11.8648 C.3     778      M_A    0.0000
   4521 H          91.4825   26.9490   13.5162 H       778      M_A    0.0000
   4522 H          90.8440   27.2491   11.7308 H       778      M_A    0.0000
   4523 H          93.1457   26.8764   10.6687 H       778      M_A    0.0000
   4524 H          94.0957   27.5533   12.1935 H       778      M_A    0.0000
   4525 C          93.4673   25.2644   12.3926 C.3     779      M_A    0.0000
   4526 C          94.5997   24.4818   11.4444 C.3     779      M_A    0.0000
   4527 H          93.8357   25.2951   13.5305 H       779      M_A    0.0000
   4528 H          92.4349   24.6598   12.3819 H       779      M_A    0.0000
   4529 H          94.4227   23.2992   11.4858 H       779      M_A    0.0000
   4530 H          94.4730   24.8083   10.3003 H       779      M_A    0.0000
   4531 C          96.2017   24.8168   11.9389 C.3     780      M_A    0.0000
   4532 C          97.3357   24.1373   10.9159 C.3     780      M_A    0.0000
   4533 H          96.3506   26.0030   11.9863 H       780      M_A    0.0000
   4534 H          96.3554   24.4064   13.0522 H       780      M_A    0.0000
   4535 H          97.3654   22.9507   11.0666 H       780      M_A    0.0000
   4536 H          97.0283   24.3313    9.7759 H       780      M_A    0.0000
   4537 C          98.9040   24.7655   11.1783 C.3     781      M_A    0.0000
   4538 C         100.0180   24.1647   10.0864 C.3     781      M_A    0.0000
   4539 H          98.8589   25.9588   11.1037 H       781      M_A    0.0000
   4540 H          99.2424   24.5036   12.2957 H       781      M_A    0.0000
   4541 H         100.4414   25.0507    9.4028 H       781      M_A    0.0000
   4542 H         100.9552   23.7022   10.6690 H       781      M_A    0.0000
   4543 C          99.3488   22.9598    9.0748 C.3     782      M_A    0.0000
   4544 C          99.0453   23.5253    7.5313 C.3     782      M_A    0.0000
   4545 H         100.1021   22.0312    9.0307 H       782      M_A    0.0000
   4546 H          98.3368   22.5580    9.5709 H       782      M_A    0.0000
   4547 H          98.8646   24.7078    7.5558 H       782      M_A    0.0000
   4548 H          99.9971   23.3376    6.8311 H       782      M_A    0.0000
   4549 C          97.6828   22.7742    6.8223 C.3     783      M_A    0.0000
   4550 C          97.7655   22.7583    5.1528 C.3     783      M_A    0.0000
   4551 H          97.5981   21.6561    7.2396 H       783      M_A    0.0000
   4552 H          96.6962   23.3496    7.1787 H       783      M_A    0.0000
   4553 H          97.1416   23.6745    4.7024 H       783      M_A    0.0000
   4554 H          98.8982   22.9058    4.7967 H       783      M_A    0.0000
   4555 C          97.1640   21.3024    4.4882 C.3     784      M_A    0.0000
   4556 C          95.5078   21.3442    4.2659 C.3     784      M_A    0.0000
   4557 H          97.7130   21.0990    3.4447 H       784      M_A    0.0000
   4558 H          97.4579   20.3971    5.2132 H       784      M_A    0.0000
   4559 H          95.2134   22.2532    3.5458 H       784      M_A    0.0000
   4560 H          95.1414   20.3430    3.7227 H       784      M_A    0.0000
   4561 C          94.6601   21.5127    5.7410 C.3     785      M_A    0.0000
   4562 C          93.2598   20.6005    5.7747 C.3     785      M_A    0.0000
   4563 H          95.3815   21.1903    6.6394 H       785      M_A    0.0000
   4564 H          94.4006   22.6689    5.9068 H       785      M_A    0.0000
   4565 H          92.4791   21.0173    4.9695 H       785      M_A    0.0000
   4566 H          93.4996   19.4693    5.4673 H       785      M_A    0.0000
   4567 C          92.5188   20.6076    7.3155 C.3     786      M_A    0.0000
   4568 C          91.0228   19.8620    7.3024 C.2     786      M_A    0.0000
   4569 H          93.2434   20.0599    8.0944 H       786      M_A    0.0000
   4570 H          92.4096   21.7401    7.6857 H       786      M_A    0.0000
   4571 H          90.2983   20.4097    6.5236 H       786      M_A    0.0000
   4572 H          91.1321   18.7295    6.9322 H       786      M_A    0.0000
   4573 C          20.7479   12.6560   43.5883 C.2     787      M_A    0.0000
   4574 C          19.3388   13.1772   42.7820 C.3     787      M_A    0.0000
   4575 H          21.0562   13.4594   44.4539 H       787      M_A    0.0000
   4576 H          21.6837   12.6071   42.8063 H       787      M_A    0.0000
   4577 H          18.7343   12.2168   42.3326 H       787      M_A    0.0000
   4578 H          18.5859   13.7283   43.5689 H       787      M_A    0.0000
   4579 C          19.6930   14.2791   41.4773 C.3     788      M_A    0.0000
   4580 C          21.0862   15.2142   41.7815 C.3     788      M_A    0.0000
   4581 H          19.8357   13.6379   40.4486 H       788      M_A    0.0000
   4582 H          18.7292   15.0079   41.3052 H       788      M_A    0.0000
   4583 H          20.7703   16.2941   42.2544 H       788      M_A    0.0000
   4584 H          21.7890   14.6602   42.6114 H       788      M_A    0.0000
   4585 C          22.0277   15.4860   40.3388 C.3     789      M_A    0.0000
   4586 C          23.3024   16.5887   40.5972 C.3     789      M_A    0.0000
   4587 H          22.4713   14.4169   39.9512 H       789      M_A    0.0000
   4588 H          21.2893   15.8987   39.4590 H       789      M_A    0.0000
   4589 H          22.8538   17.6978   40.8388 H       789      M_A    0.0000
   4590 H          23.9540   16.2539   41.5735 H       789      M_A    0.0000
   4591 C          24.3684   16.7010   39.2214 C.3     790      M_A    0.0000
   4592 C          25.4844   17.9815   39.3714 C.3     790      M_A    0.0000
   4593 H          24.9614   15.6416   39.0957 H       790      M_A    0.0000
   4594 H          23.6959   16.8479   38.2135 H       790      M_A    0.0000
   4595 H          24.9047   19.0064   39.6926 H       790      M_A    0.0000
   4596 H          26.2841   17.7377   40.2607 H       790      M_A    0.0000
   4597 C          26.3606   18.2714   37.8915 C.3     791      M_A    0.0000
   4598 C          27.8697   17.4777   37.8679 C.3     791      M_A    0.0000
   4599 H          25.6776   17.8998   36.9507 H       791      M_A    0.0000
   4600 H          26.5182   19.4742   37.7568 H       791      M_A    0.0000
   4601 H          28.6711   18.0816   38.5627 H       791      M_A    0.0000
   4602 H          27.7624   16.3603   38.3471 H       791      M_A    0.0000
   4603 C          28.5176   17.3377   36.2547 C.3     792      M_A    0.0000
   4604 C          28.6279   15.7155   35.7411 C.3     792      M_A    0.0000
   4605 H          27.8088   17.9717   35.4896 H       792      M_A    0.0000
   4606 H          29.6198   17.8614   36.2266 H       792      M_A    0.0000
   4607 H          29.7596   15.2953   35.9217 H       792      M_A    0.0000
   4608 H          27.8833   15.0141   36.4070 H       792      M_A    0.0000
   4609 C          28.2203   15.5265   34.0559 C.3     793      M_A    0.0000
   4610 C          29.5920   15.2234   33.0893 C.3     793      M_A    0.0000
   4611 H          27.4197   14.6119   33.9449 H       793      M_A    0.0000
   4612 H          27.6532   16.5371   33.6726 H       793      M_A    0.0000
   4613 H          30.5588   15.8194   33.5362 H       793      M_A    0.0000
   4614 H          29.8692   14.0351   33.1170 H       793      M_A    0.0000
   4615 C          29.3515   15.7060   31.4307 C.3     794      M_A    0.0000
   4616 C          30.7425   16.4289   30.7598 C.3     794      M_A    0.0000
   4617 H          29.0333   14.7251   30.7777 H       794      M_A    0.0000
   4618 H          28.4105   16.4816   31.3791 H       794      M_A    0.0000
   4619 H          30.9635   17.4977   31.3060 H       794      M_A    0.0000
   4620 H          31.7186   15.7242   30.9606 H       794      M_A    0.0000
   4621 C          30.5859   16.6964   29.0435 C.3     795      M_A    0.0000
   4622 C          30.7217   18.3455   28.6315 C.3     795      M_A    0.0000
   4623 H          31.4431   16.0485   28.4645 H       795      M_A    0.0000
   4624 H          29.5075   16.2602   28.6741 H       795      M_A    0.0000
   4625 H          29.8280   18.9847   29.1631 H       795      M_A    0.0000
   4626 H          31.7743   18.7970   29.0534 H       795      M_A    0.0000
   4627 C          30.6495   18.6044   26.9082 C.3     796      M_A    0.0000
   4628 C          31.3775   20.0750   26.4446 C.3     796      M_A    0.0000
   4629 H          31.1988   17.6702   26.3467 H       796      M_A    0.0000
   4630 H          29.4809   18.5867   26.5564 H       796      M_A    0.0000
   4631 H          30.7928   21.0130   26.9625 H       796      M_A    0.0000
   4632 H          32.5297   20.1161   26.8450 H       796      M_A    0.0000
   4633 C          31.3751   20.2973   24.7148 C.3     797      M_A    0.0000
   4634 C          32.9445   20.5349   24.0916 C.3     797      M_A    0.0000
   4635 H          30.8612   19.3207   24.1933 H       797      M_A    0.0000
   4636 H          30.6673   21.2534   24.4419 H       797      M_A    0.0000
   4637 H          33.5114   21.4202   24.7118 H       797      M_A    0.0000
   4638 H          33.6105   19.5226   24.2379 H       797      M_A    0.0000
   4639 C          32.9269   20.9565   22.3994 C.3     798      M_A    0.0000
   4640 C          33.4804   19.6826   21.4102 C.3     798      M_A    0.0000
   4641 H          31.7898   21.2681   22.0834 H       798      M_A    0.0000
   4642 H          33.6206   21.9470   22.2335 H       798      M_A    0.0000
   4643 H          33.4992   20.0374   20.2425 H       798      M_A    0.0000
   4644 H          34.6279   19.3910   21.7064 H       798      M_A    0.0000
   4645 C          32.4845   18.2576   21.5487 C.3     799      M_A    0.0000
   4646 C          32.9408   17.0405   20.4450 C.3     799      M_A    0.0000
   4647 H          32.5587   17.8354   22.6915 H       799      M_A    0.0000
   4648 H          31.3195   18.5725   21.3664 H       799      M_A    0.0000
   4649 H          33.4715   17.5407   19.4663 H       799      M_A    0.0000
   4650 H          33.7691   16.3028   20.9543 H       799      M_A    0.0000
   4651 C          31.5820   16.0818   19.9193 C.3     800      M_A    0.0000
   4652 C          32.0491   14.8157   18.8769 C.3     800      M_A    0.0000
   4653 H          31.0170   15.6283   20.9015 H       800      M_A    0.0000
   4654 H          30.7795   16.8109   19.3588 H       800      M_A    0.0000
   4655 H          33.2503   14.6196   18.9688 H       800      M_A    0.0000
   4656 H          31.4982   13.7776   19.2064 H       800      M_A    0.0000
   4657 C          31.6605   15.1540   17.2106 C.3     801      M_A    0.0000
   4658 C          32.2710   13.9660   16.1507 C.3     801      M_A    0.0000
   4659 H          30.4478   15.2324   17.0976 H       801      M_A    0.0000
   4660 H          32.1115   16.2493   16.9161 H       801      M_A    0.0000
   4661 H          33.2868   13.4734   16.6145 H       801      M_A    0.0000
   4662 H          31.4643   13.0579   16.0307 H       801      M_A    0.0000
   4663 C          32.6300   14.6115   14.5707 C.3     802      M_A    0.0000
   4664 C          32.0979   13.5852   13.3172 C.3     802      M_A    0.0000
   4665 H          32.1047   15.7081   14.4651 H       802      M_A    0.0000
   4666 H          33.8342   14.7897   14.4829 H       802      M_A    0.0000
   4667 H          31.2388   12.8253   13.7347 H       802      M_A    0.0000
   4668 H          31.5818   14.2432   12.4282 H       802      M_A    0.0000
   4669 C          33.3988   12.6436   12.6367 C.3     803      M_A    0.0000
   4670 C          33.2308   10.9785   12.9634 C.3     803      M_A    0.0000
   4671 H          33.4323   12.8323   11.4313 H       803      M_A    0.0000
   4672 H          34.4574   13.0534   13.0853 H       803      M_A    0.0000
   4673 H          32.5476   10.8146   13.9614 H       803      M_A    0.0000
   4674 H          32.6459   10.4286   12.0440 H       803      M_A    0.0000
   4675 C          34.7698   10.1928   13.2004 C.3     804      M_A    0.0000
   4676 C          34.8653    9.3998   14.7069 C.3     804      M_A    0.0000
   4677 H          34.9473    9.3939   12.2949 H       804      M_A    0.0000
   4678 H          35.6557   11.0276   13.1099 H       804      M_A    0.0000
   4679 H          34.0355    8.5065   14.7629 H       804      M_A    0.0000
   4680 H          35.9583    8.8714   14.8331 H       804      M_A    0.0000
   4681 C          34.6097   10.4892   16.0447 C.3     805      M_A    0.0000
   4682 C          35.9993   10.6530   17.0193 C.2     805      M_A    0.0000
   4683 H          34.2749   11.5782   15.6068 H       805      M_A    0.0000
   4684 H          33.6753   10.0781   16.7138 H       805      M_A    0.0000
   4685 H          36.3341    9.5640   17.4572 H       805      M_A    0.0000
   4686 H          36.9337   11.0641   16.3502 H       805      M_A    0.0000
   4687 C          55.6369   69.7603   25.5699 C.2     806      M_A    0.0000
   4688 C          54.7603   68.6201   26.0044 C.3     806      M_A    0.0000
   4689 H          56.0968   69.5325   24.6249 H       806      M_A    0.0000
   4690 H          56.4356   69.9012   26.2761 H       806      M_A    0.0000
   4691 H          54.0181   68.9698   26.6997 H       806      M_A    0.0000
   4692 H          54.2282   68.2213   25.1593 H       806      M_A    0.0000
   4693 C          55.5624   67.4875   26.6641 C.3     807      M_A    0.0000
   4694 C          56.7026   67.0214   25.8039 C.3     807      M_A    0.0000
   4695 H          55.9332   67.8323   27.6128 H       807      M_A    0.0000
   4696 H          54.8981   66.6677   26.8717 H       807      M_A    0.0000
   4697 H          56.3308   66.6668   24.8592 H       807      M_A    0.0000
   4698 H          57.3613   67.8434   25.5876 H       807      M_A    0.0000
   4699 C          57.5136   65.8988   26.4699 C.3     808      M_A    0.0000
   4700 C          58.6890   65.4739   25.6362 C.3     808      M_A    0.0000
   4701 H          57.8486   66.2383   27.4338 H       808      M_A    0.0000
   4702 H          56.8642   65.0600   26.6465 H       808      M_A    0.0000
   4703 H          58.3577   64.8612   24.8169 H       808      M_A    0.0000
   4704 H          59.1655   66.3358   25.2043 H       808      M_A    0.0000
   4705 C          59.7287   64.6900   26.4522 C.3     809      M_A    0.0000
   4706 C          61.0032   64.4689   25.6880 C.3     809      M_A    0.0000
   4707 H          59.9323   65.2269   27.3614 H       809      M_A    0.0000
   4708 H          59.3028   63.7454   26.7401 H       809      M_A    0.0000
   4709 H          60.8429   63.7511   24.9034 H       809      M_A    0.0000
   4710 H          61.3112   65.3828   25.2123 H       809      M_A    0.0000
   4711 C          62.1438   63.9709   26.5894 C.3     810      M_A    0.0000
   4712 C          63.3912   63.6621   25.8111 C.3     810      M_A    0.0000
   4713 H          62.3494   64.7194   27.3337 H       810      M_A    0.0000
   4714 H          61.8115   63.0944   27.1165 H       810      M_A    0.0000
   4715 H          63.2006   62.8715   25.1075 H       810      M_A    0.0000
   4716 H          63.6897   64.5210   25.2370 H       810      M_A    0.0000
   4717 C          64.5571   63.2449   26.7211 C.3     811      M_A    0.0000
   4718 C          65.7648   62.8144   25.9379 C.3     811      M_A    0.0000
   4719 H          64.8087   64.0706   27.3625 H       811      M_A    0.0000
   4720 H          64.2285   62.4456   27.3610 H       811      M_A    0.0000
   4721 H          65.5234   61.9636   25.3260 H       811      M_A    0.0000
   4722 H          66.0695   63.5993   25.2689 H       811      M_A    0.0000
   4723 C          66.9492   62.4508   26.8469 C.3     812      M_A    0.0000
   4724 C          68.1065   61.8837   26.0747 C.3     812      M_A    0.0000
   4725 H          67.2586   63.3309   27.3818 H       812      M_A    0.0000
   4726 H          66.6155   61.7427   27.5843 H       812      M_A    0.0000
   4727 H          67.8225   60.9544   25.6140 H       812      M_A    0.0000
   4728 H          68.3811   62.5520   25.2782 H       812      M_A    0.0000
   4729 C          69.3363   61.6405   26.9634 C.3     813      M_A    0.0000
   4730 C          70.0552   60.3707   26.6056 C.3     813      M_A    0.0000
   4731 H          70.0022   62.4798   26.8710 H       813      M_A    0.0000
   4732 H          69.0206   61.6085   27.9909 H       813      M_A    0.0000
   4733 H          69.6730   59.5532   27.1905 H       813      M_A    0.0000
   4734 H          69.8755   60.1232   25.5746 H       813      M_A    0.0000
   4735 C          71.5713   60.4760   26.8327 C.3     814      M_A    0.0000
   4736 C          72.3476   59.5632   25.9264 C.3     814      M_A    0.0000
   4737 H          71.8751   61.4958   26.6771 H       814      M_A    0.0000
   4738 H          71.7848   60.2436   27.8608 H       814      M_A    0.0000
   4739 H          71.7833   59.3636   25.0329 H       814      M_A    0.0000
   4740 H          73.2596   60.0406   25.6155 H       814      M_A    0.0000
   4741 C          72.6933   58.2273   26.6026 C.3     815      M_A    0.0000
   4742 C          73.7479   57.4651   25.8515 C.3     815      M_A    0.0000
   4743 H          73.0245   58.4226   27.6069 H       815      M_A    0.0000
   4744 H          71.7979   57.6370   26.6820 H       815      M_A    0.0000
   4745 H          73.2884   56.7321   25.2127 H       815      M_A    0.0000
   4746 H          74.2985   58.1310   25.2112 H       815      M_A    0.0000
   4747 C          74.7336   56.7543   26.7919 C.3     816      M_A    0.0000
   4748 C          74.9183   55.3067   26.4346 C.3     816      M_A    0.0000
   4749 H          75.6784   57.2666   26.7552 H       816      M_A    0.0000
   4750 H          74.3739   56.8419   27.8016 H       816      M_A    0.0000
   4751 H          74.2373   54.6972   27.0015 H       816      M_A    0.0000
   4752 H          74.6826   55.1500   25.3972 H       816      M_A    0.0000
   4753 C          76.3526   54.8208   26.6957 C.3     817      M_A    0.0000
   4754 C          76.4302   53.3275   26.8414 C.3     817      M_A    0.0000
   4755 H          76.9813   55.1454   25.8858 H       817      M_A    0.0000
   4756 H          76.7237   55.2979   27.5851 H       817      M_A    0.0000
   4757 H          76.2284   53.0454   27.8594 H       817      M_A    0.0000
   4758 H          75.6757   52.8582   26.2356 H       817      M_A    0.0000
   4759 C          77.8054   52.7736   26.4372 C.3     818      M_A    0.0000
   4760 C          78.2454   51.6414   27.3213 C.3     818      M_A    0.0000
   4761 H          77.7600   52.4462   25.4139 H       818      M_A    0.0000
   4762 H          78.5251   53.5717   26.4745 H       818      M_A    0.0000
   4763 H          78.8478   52.0170   28.1291 H       818      M_A    0.0000
   4764 H          77.3893   51.1685   27.7685 H       818      M_A    0.0000
   4765 C          79.0515   50.5822   26.5534 C.3     819      M_A    0.0000
   4766 C          79.4363   49.4187   27.4226 C.3     819      M_A    0.0000
   4767 H          78.4673   50.2408   25.7175 H       819      M_A    0.0000
   4768 H          79.9324   51.0452   26.1458 H       819      M_A    0.0000
   4769 H          80.4386   49.5484   27.7898 H       819      M_A    0.0000
   4770 H          78.7948   49.3745   28.2846 H       819      M_A    0.0000
   4771 C          79.3526   48.0795   26.6736 C.3     820      M_A    0.0000
   4772 C          78.5767   47.0461   27.4400 C.3     820      M_A    0.0000
   4773 H          78.8962   48.2468   25.7143 H       820      M_A    0.0000
   4774 H          80.3502   47.7257   26.4836 H       820      M_A    0.0000
   4775 H          79.2072   46.5849   28.1791 H       820      M_A    0.0000
   4776 H          77.7671   47.5126   27.9723 H       820      M_A    0.0000
   4777 C          78.0032   45.9521   26.5258 C.3     821      M_A    0.0000
   4778 C          76.9020   45.1749   27.1896 C.3     821      M_A    0.0000
   4779 H          77.6392   46.4101   25.6235 H       821      M_A    0.0000
   4780 H          78.7994   45.2897   26.2364 H       821      M_A    0.0000
   4781 H          76.2670   45.8391   27.7482 H       821      M_A    0.0000
   4782 H          76.2816   44.7066   26.4465 H       821      M_A    0.0000
   4783 C          77.4425   44.0927   28.1372 C.3     822      M_A    0.0000
   4784 C          76.3831   43.5660   29.0632 C.3     822      M_A    0.0000
   4785 H          77.8509   43.2899   27.5496 H       822      M_A    0.0000
   4786 H          78.2572   44.5049   28.7054 H       822      M_A    0.0000
   4787 H          76.3400   44.1669   29.9540 H       822      M_A    0.0000
   4788 H          75.4170   43.6363   28.5962 H       822      M_A    0.0000
   4789 C          76.6343   42.1038   29.4638 C.3     823      M_A    0.0000
   4790 C          77.0611   41.9718   30.8982 C.3     823      M_A    0.0000
   4791 H          75.7357   41.5383   29.2929 H       823      M_A    0.0000
   4792 H          77.3868   41.6913   28.8157 H       823      M_A    0.0000
   4793 H          76.2683   42.2929   31.5499 H       823      M_A    0.0000
   4794 H          77.2542   40.9400   31.1320 H       823      M_A    0.0000
   4795 C          78.3214   42.7943   31.2089 C.3     824      M_A    0.0000
   4796 C          78.7519   42.6572   32.6418 C.3     824      M_A    0.0000
   4797 H          79.1130   42.4763   30.5541 H       824      M_A    0.0000
   4798 H          78.1268   43.8267   30.9795 H       824      M_A    0.0000
   4799 H          77.9839   43.0317   33.2949 H       824      M_A    0.0000
   4800 H          78.8879   41.6194   32.8883 H       824      M_A    0.0000
   4801 C          80.0594   43.4107   32.9317 C.3     825      M_A    0.0000
   4802 C          79.8831   44.4759   33.9764 C.3     825      M_A    0.0000
   4803 H          80.8043   42.7029   33.2488 H       825      M_A    0.0000
   4804 H          80.4180   43.8474   32.0167 H       825      M_A    0.0000
   4805 H          79.4608   45.3603   33.5337 H       825      M_A    0.0000
   4806 H          79.1884   44.1445   34.7274 H       825      M_A    0.0000
   4807 C          81.2091   44.8481   34.6581 C.3     826      M_A    0.0000
   4808 C          81.8984   45.9949   33.9748 C.3     826      M_A    0.0000
   4809 H          81.0128   45.0956   35.6861 H       826      M_A    0.0000
   4810 H          81.8496   43.9843   34.6653 H       826      M_A    0.0000
   4811 H          81.1772   46.7371   33.6822 H       826      M_A    0.0000
   4812 H          82.5774   46.4758   34.6560 H       826      M_A    0.0000
   4813 C          82.6802   45.5463   32.7302 C.3     827      M_A    0.0000
   4814 C          82.9032   46.6726   31.7613 C.3     827      M_A    0.0000
   4815 H          83.6241   45.1366   33.0429 H       827      M_A    0.0000
   4816 H          82.1410   44.7488   32.2509 H       827      M_A    0.0000
   4817 H          82.1928   47.4598   31.9411 H       827      M_A    0.0000
   4818 H          83.8797   47.0982   31.9089 H       827      M_A    0.0000
   4819 C          82.7775   46.2165   30.2992 C.3     828      M_A    0.0000
   4820 C          83.4687   47.1530   29.3492 C.3     828      M_A    0.0000
   4821 H          83.1903   45.2277   30.2079 H       828      M_A    0.0000
   4822 H          81.7346   46.1402   30.0484 H       828      M_A    0.0000
   4823 H          82.7669   47.8705   28.9628 H       828      M_A    0.0000
   4824 H          84.2270   47.7115   29.8683 H       828      M_A    0.0000
   4825 C          84.1189   46.4118   28.1706 C.3     829      M_A    0.0000
   4826 C          83.7772   47.0358   26.8473 C.3     829      M_A    0.0000
   4827 H          85.1851   46.4054   28.3109 H       829      M_A    0.0000
   4828 H          83.7990   45.3852   28.1878 H       829      M_A    0.0000
   4829 H          84.1136   46.4046   26.0442 H       829      M_A    0.0000
   4830 H          82.7103   47.1231   26.7453 H       829      M_A    0.0000
   4831 C          84.4063   48.4278   26.6801 C.3     830      M_A    0.0000
   4832 C          83.8388   49.1716   25.5046 C.3     830      M_A    0.0000
   4833 H          84.2489   48.9901   27.5832 H       830      M_A    0.0000
   4834 H          85.4699   48.3162   26.5672 H       830      M_A    0.0000
   4835 H          82.7673   49.2211   25.5819 H       830      M_A    0.0000
   4836 H          84.1954   50.1862   25.5031 H       830      M_A    0.0000
   4837 C          84.2089   48.5145   24.1657 C.3     831      M_A    0.0000
   4838 C          85.3784   49.1877   23.5051 C.3     831      M_A    0.0000
   4839 H          84.4303   47.4764   24.3386 H       831      M_A    0.0000
   4840 H          83.3519   48.5435   23.5167 H       831      M_A    0.0000
   4841 H          85.3647   48.9960   22.4470 H       831      M_A    0.0000
   4842 H          85.3072   50.2538   23.6268 H       831      M_A    0.0000
   4843 C          86.7231   48.7126   24.0772 C.3     832      M_A    0.0000
   4844 C          87.8053   49.7425   23.9182 C.3     832      M_A    0.0000
   4845 H          86.5921   48.4730   25.1174 H       832      M_A    0.0000
   4846 H          87.0070   47.8003   23.5836 H       832      M_A    0.0000
   4847 H          87.6733   50.2764   22.9941 H       832      M_A    0.0000
   4848 H          87.7405   50.4703   24.7073 H       832      M_A    0.0000
   4849 C          89.2097   49.1189   23.9337 C.3     833      M_A    0.0000
   4850 C          89.6810   48.8120   25.3268 C.3     833      M_A    0.0000
   4851 H          89.1966   48.2206   23.3426 H       833      M_A    0.0000
   4852 H          89.8944   49.7948   23.4533 H       833      M_A    0.0000
   4853 H          90.0649   49.7030   25.7909 H       833      M_A    0.0000
   4854 H          88.8554   48.4804   25.9308 H       833      M_A    0.0000
   4855 C          90.7746   47.7325   25.3471 C.3     834      M_A    0.0000
   4856 C          92.0225   48.1992   26.0414 C.3     834      M_A    0.0000
   4857 H          90.3872   46.8558   25.8347 H       834      M_A    0.0000
   4858 H          91.0001   47.4486   24.3347 H       834      M_A    0.0000
   4859 H          92.8493   47.5627   25.7811 H       834      M_A    0.0000
   4860 H          92.2796   49.1899   25.7115 H       834      M_A    0.0000
   4861 C          91.8686   48.2107   27.5704 C.3     835      M_A    0.0000
   4862 C          93.1947   48.2394   28.2759 C.3     835      M_A    0.0000
   4863 H          91.2819   49.0664   27.8532 H       835      M_A    0.0000
   4864 H          91.3106   47.3413   27.8691 H       835      M_A    0.0000
   4865 H          93.2152   47.4960   29.0527 H       835      M_A    0.0000
   4866 H          93.9834   47.9899   27.5888 H       835      M_A    0.0000
   4867 C          93.4946   49.6127   28.8966 C.3     836      M_A    0.0000
   4868 C          93.9977   49.5021   30.3079 C.3     836      M_A    0.0000
   4869 H          94.2203   50.1185   28.2850 H       836      M_A    0.0000
   4870 H          92.5995   50.2082   28.8698 H       836      M_A    0.0000
   4871 H          93.4087   48.7873   30.8544 H       836      M_A    0.0000
   4872 H          95.0089   49.1362   30.3114 H       836      M_A    0.0000
   4873 C          93.9555   50.8480   31.0484 C.3     837      M_A    0.0000
   4874 C          95.0436   50.9659   32.0777 C.3     837      M_A    0.0000
   4875 H          94.0411   51.6424   30.3286 H       837      M_A    0.0000
   4876 H          92.9929   50.9567   31.5153 H       837      M_A    0.0000
   4877 H          95.2307   50.0074   32.5278 H       837      M_A    0.0000
   4878 H          95.9622   51.2720   31.6098 H       837      M_A    0.0000
   4879 C          94.6919   51.9726   33.1841 C.3     838      M_A    0.0000
   4880 C          95.5098   51.7617   34.4267 C.3     838      M_A    0.0000
   4881 H          94.8433   52.9684   32.8076 H       838      M_A    0.0000
   4882 H          93.6448   51.8847   33.4127 H       838      M_A    0.0000
   4883 H          96.3986   51.2034   34.1927 H       838      M_A    0.0000
   4884 H          95.8345   52.7087   34.8195 H       838      M_A    0.0000
   4885 C          94.7283   51.0143   35.5184 C.3     839      M_A    0.0000
   4886 C          94.2571   51.9318   36.6108 C.3     839      M_A    0.0000
   4887 H          93.8884   50.5183   35.0656 H       839      M_A    0.0000
   4888 H          95.3569   50.2444   35.9291 H       839      M_A    0.0000
   4889 H          95.0585   52.5789   36.9201 H       839      M_A    0.0000
   4890 H          93.4707   52.5675   36.2448 H       839      M_A    0.0000
   4891 C          93.7414   51.1615   37.8364 C.3     840      M_A    0.0000
   4892 C          92.2407   51.1368   37.9033 C.3     840      M_A    0.0000
   4893 H          94.1255   50.1577   37.8017 H       840      M_A    0.0000
   4894 H          94.1427   51.6152   38.7250 H       840      M_A    0.0000
   4895 H          91.9138   51.3064   38.9137 H       840      M_A    0.0000
   4896 H          91.8319   51.9341   37.3086 H       840      M_A    0.0000
   4897 C          91.6577   49.8029   37.4113 C.3     841      M_A    0.0000
   4898 C          90.6242   49.2517   38.3522 C.3     841      M_A    0.0000
   4899 H          91.2276   49.9510   36.4369 H       841      M_A    0.0000
   4900 H          92.4603   49.0973   37.2907 H       841      M_A    0.0000
   4901 H          91.0739   49.0256   39.3025 H       841      M_A    0.0000
   4902 H          89.8639   49.9893   38.5380 H       841      M_A    0.0000
   4903 C          89.9574   47.9801   37.8047 C.3     842      M_A    0.0000
   4904 C          88.4600   48.0951   37.7632 C.3     842      M_A    0.0000
   4905 H          90.3397   47.7853   36.8186 H       842      M_A    0.0000
   4906 H          90.2462   47.1455   38.4184 H       842      M_A    0.0000
   4907 H          88.1069   48.6278   38.6281 H       842      M_A    0.0000
   4908 H          88.1577   48.6667   36.9039 H       842      M_A    0.0000
   4909 C          87.7716   46.7222   37.7119 C.3     843      M_A    0.0000
   4910 C          87.1082   46.4670   36.3883 C.3     843      M_A    0.0000
   4911 H          88.5035   45.9598   37.9106 H       843      M_A    0.0000
   4912 H          87.0465   46.6682   38.5043 H       843      M_A    0.0000
   4913 H          86.0399   46.4443   36.5096 H       843      M_A    0.0000
   4914 H          87.3246   47.2699   35.7064 H       843      M_A    0.0000
   4915 C          87.5629   45.1429   35.7546 C.3     844      M_A    0.0000
   4916 C          88.9400   45.2389   35.1616 C.3     844      M_A    0.0000
   4917 H          87.5373   44.3728   36.5048 H       844      M_A    0.0000
   4918 H          86.8541   44.8598   34.9971 H       844      M_A    0.0000
   4919 H          88.9069   45.7922   34.2401 H       844      M_A    0.0000
   4920 H          89.5900   45.7817   35.8245 H       844      M_A    0.0000
   4921 C          89.5537   43.8569   34.8878 C.3     845      M_A    0.0000
   4922 C          90.6392   43.5118   35.8676 C.3     845      M_A    0.0000
   4923 H          88.7738   43.1175   34.9260 H       845      M_A    0.0000
   4924 H          89.9435   43.8432   33.8857 H       845      M_A    0.0000
   4925 H          91.6040   43.6698   35.4197 H       845      M_A    0.0000
   4926 H          90.5851   44.1624   36.7221 H       845      M_A    0.0000
   4927 C          90.5486   42.0549   36.3477 C.3     846      M_A    0.0000
   4928 C          91.8990   41.4045   36.4515 C.3     846      M_A    0.0000
   4929 H          90.0553   42.0348   37.3031 H       846      M_A    0.0000
   4930 H          89.9252   41.5036   35.6666 H       846      M_A    0.0000
   4931 H          91.8244   40.4862   37.0060 H       846      M_A    0.0000
   4932 H          92.2597   41.1455   35.4720 H       846      M_A    0.0000
   4933 C          92.9321   42.3135   37.1354 C.3     847      M_A    0.0000
   4934 C          94.3440   41.9185   36.8070 C.3     847      M_A    0.0000
   4935 H          92.7538   43.3299   36.8328 H       847      M_A    0.0000
   4936 H          92.7766   42.2761   38.1988 H       847      M_A    0.0000
   4937 H          94.4717   40.8594   36.9434 H       847      M_A    0.0000
   4938 H          94.5533   42.1241   35.7724 H       847      M_A    0.0000
   4939 C          95.3728   42.6575   37.6769 C.3     848      M_A    0.0000
   4940 C          96.7824   42.2341   37.3753 C.3     848      M_A    0.0000
   4941 H          95.2639   43.7157   37.5191 H       848      M_A    0.0000
   4942 H          95.1464   42.4748   38.7122 H       848      M_A    0.0000
   4943 H          97.4778   42.9156   37.8320 H       848      M_A    0.0000
   4944 H          96.9753   41.2652   37.8002 H       848      M_A    0.0000
   4945 C          97.0632   42.1777   35.8656 C.3     849      M_A    0.0000
   4946 C          96.8153   40.8119   35.2910 C.3     849      M_A    0.0000
   4947 H          96.4437   42.9041   35.3704 H       849      M_A    0.0000
   4948 H          98.0829   42.4715   35.6914 H       849      M_A    0.0000
   4949 H          96.1240   40.2705   35.9119 H       849      M_A    0.0000
   4950 H          96.3579   40.8972   34.3214 H       849      M_A    0.0000
   4951 C          98.1084   39.9924   35.1582 C.3     850      M_A    0.0000
   4952 C          98.0921   39.0940   33.9541 C.3     850      M_A    0.0000
   4953 H          98.9430   40.6684   35.1027 H       850      M_A    0.0000
   4954 H          98.2424   39.4091   36.0517 H       850      M_A    0.0000
   4955 H          97.5986   38.1685   34.1912 H       850      M_A    0.0000
   4956 H          97.5275   39.5507   33.1609 H       850      M_A    0.0000
   4957 C          99.5066   38.7835   33.4400 C.3     851      M_A    0.0000
   4958 C          99.7840   39.4286   32.1118 C.3     851      M_A    0.0000
   4959 H         100.2220   39.1191   34.1695 H       851      M_A    0.0000
   4960 H          99.6210   37.7170   33.3630 H       851      M_A    0.0000
   4961 H          99.0166   39.1645   31.4062 H       851      M_A    0.0000
   4962 H          99.7586   40.4992   32.2093 H       851      M_A    0.0000
   4963 C         101.1482   39.0157   31.5375 C.3     852      M_A    0.0000
   4964 C         102.2042   40.0581   31.7732 C.3     852      M_A    0.0000
   4965 H         101.4444   38.0832   31.9839 H       852      M_A    0.0000
   4966 H         101.0395   38.8327   30.4833 H       852      M_A    0.0000
   4967 H         103.1432   39.7308   31.3638 H       852      M_A    0.0000
   4968 H         101.9449   40.9679   31.2620 H       852      M_A    0.0000
   4969 C         102.3954   40.3662   33.2665 C.3     853      M_A    0.0000
   4970 C         103.7726   40.0097   33.7497 C.3     853      M_A    0.0000
   4971 H         102.2058   41.4117   33.4317 H       853      M_A    0.0000
   4972 H         101.6556   39.8254   33.8294 H       853      M_A    0.0000
   4973 H         104.4947   40.6957   33.3442 H       853      M_A    0.0000
   4974 H         103.8238   40.1040   34.8197 H       853      M_A    0.0000
   4975 C         104.1747   38.5790   33.3587 C.3     854      M_A    0.0000
   4976 C         104.6743   37.7868   34.5335 C.3     854      M_A    0.0000
   4977 H         103.3254   38.0885   32.9176 H       854      M_A    0.0000
   4978 H         104.9328   38.6277   32.5976 H       854      M_A    0.0000
   4979 H         105.1239   38.4436   35.2567 H       854      M_A    0.0000
   4980 H         103.8518   37.3007   35.0271 H       854      M_A    0.0000
   4981 C         105.7043   36.7229   34.1228 C.3     855      M_A    0.0000
   4982 C         105.5185   35.4325   34.8695 C.3     855      M_A    0.0000
   4983 H         105.6224   36.5515   33.0644 H       855      M_A    0.0000
   4984 H         106.6919   37.1110   34.2973 H       855      M_A    0.0000
   4985 H         104.7078   34.8714   34.4401 H       855      M_A    0.0000
   4986 H         106.3994   34.8227   34.7767 H       855      M_A    0.0000
   4987 C         105.2282   35.6595   36.3614 C.3     856      M_A    0.0000
   4988 C         104.8304   34.3921   37.0633 C.3     856      M_A    0.0000
   4989 H         106.1033   36.0787   36.8249 H       856      M_A    0.0000
   4990 H         104.4477   36.3933   36.4549 H       856      M_A    0.0000
   4991 H         105.1230   33.5389   36.4777 H       856      M_A    0.0000
   4992 H         105.3470   34.3134   38.0032 H       856      M_A    0.0000
   4993 C         103.3174   34.3200   37.3221 C.3     857      M_A    0.0000
   4994 C         102.8547   32.9194   37.6074 C.3     857      M_A    0.0000
   4995 H         103.0762   34.9637   38.1492 H       857      M_A    0.0000
   4996 H         102.8000   34.7118   36.4647 H       857      M_A    0.0000
   4997 H         101.7819   32.8926   37.6779 H       857      M_A    0.0000
   4998 H         103.1271   32.2685   36.7958 H       857      M_A    0.0000
   4999 C         103.4507   32.3631   38.9099 C.3     858      M_A    0.0000
   5000 C         103.5357   30.8631   38.9021 C.3     858      M_A    0.0000
   5001 H         104.4286   32.7871   39.0525 H       858      M_A    0.0000
   5002 H         102.8472   32.6939   39.7363 H       858      M_A    0.0000
   5003 H         102.6321   30.4404   39.3037 H       858      M_A    0.0000
   5004 H         103.6225   30.5039   37.8922 H       858      M_A    0.0000
   5005 C         104.7304   30.3433   39.7170 C.3     859      M_A    0.0000
   5006 C         104.9161   28.8595   39.5719 C.3     859      M_A    0.0000
   5007 H         105.6184   30.8590   39.3977 H       859      M_A    0.0000
   5008 H         104.5810   30.5968   40.7513 H       859      M_A    0.0000
   5009 H         105.7775   28.6536   38.9620 H       859      M_A    0.0000
   5010 H         105.1051   28.4158   40.5331 H       859      M_A    0.0000
   5011 C         103.6903   28.1778   38.9441 C.3     860      M_A    0.0000
   5012 C         103.6828   26.6935   39.1769 C.3     860      M_A    0.0000
   5013 H         102.7999   28.6198   39.3542 H       860      M_A    0.0000
   5014 H         103.6805   28.3856   37.8890 H       860      M_A    0.0000
   5015 H         102.8186   26.2520   38.7135 H       860      M_A    0.0000
   5016 H         104.5440   26.2436   38.7160 H       860      M_A    0.0000
   5017 C         103.6789   26.3385   40.6720 C.3     861      M_A    0.0000
   5018 C         102.8461   25.1232   40.9664 C.3     861      M_A    0.0000
   5019 H         104.6926   26.1774   40.9926 H       861      M_A    0.0000
   5020 H         103.3096   27.1820   41.2276 H       861      M_A    0.0000
   5021 H         102.8881   24.4380   40.1387 H       861      M_A    0.0000
   5022 H         103.2431   24.6019   41.8192 H       861      M_A    0.0000
   5023 C         101.3764   25.4771   41.2423 C.3     862      M_A    0.0000
   5024 C         100.9659   25.1476   42.6494 C.3     862      M_A    0.0000
   5025 H         101.2307   26.5254   41.0516 H       862      M_A    0.0000
   5026 H         100.7550   24.9467   40.5431 H       862      M_A    0.0000
   5027 H         100.2846   24.3155   42.6495 H       862      M_A    0.0000
   5028 H         101.8239   24.8442   43.2225 H       862      M_A    0.0000
   5029 C         100.2950   26.3371   43.3541 C.3     863      M_A    0.0000
   5030 C          98.8227   26.1203   43.5600 C.2     863      M_A    0.0000
   5031 H         100.7800   26.4978   44.3004 H       863      M_A    0.0000
   5032 H         100.4588   27.2241   42.7686 H       863      M_A    0.0000
   5033 H          98.3377   25.9596   42.6137 H       863      M_A    0.0000
   5034 H          98.6589   25.2333   44.1456 H       863      M_A    0.0000
   5035 C          66.9642   76.2654   16.6218 C.2     864      M_A    0.0000
   5036 C          65.9334   75.6123   16.5116 C.3     864      M_A    0.0000
   5037 H          67.5813   75.7879   17.0222 H       864      M_A    0.0000
   5038 H          66.8224   76.9682   17.1269 H       864      M_A    0.0000
   5039 H          65.2648   76.1391   16.3005 H       864      M_A    0.0000
   5040 H          66.0131   75.0324   15.8585 H       864      M_A    0.0000
   5041 C          65.6459   74.9973   17.5650 C.3     865      M_A    0.0000
   5042 C          66.4952   74.1663   17.8641 C.3     865      M_A    0.0000
   5043 H          65.5519   75.5785   18.2150 H       865      M_A    0.0000
   5044 H          64.8672   74.6074   17.4612 H       865      M_A    0.0000
   5045 H          66.6825   73.6644   17.1697 H       865      M_A    0.0000
   5046 H          67.2407   74.5674   18.0933 H       865      M_A    0.0000
   5047 C          66.1266   73.4288   18.8078 C.3     866      M_A    0.0000
   5048 C          65.9915   72.2618   18.4598 C.3     866      M_A    0.0000
   5049 H          66.7152   73.4832   19.4557 H       866      M_A    0.0000
   5050 H          65.3704   73.7365   19.1282 H       866      M_A    0.0000
   5051 H          65.2291   72.1600   18.0384 H       866      M_A    0.0000
   5052 H          66.6238   72.0420   17.8931 H       866      M_A    0.0000
   5053 C          66.0256   71.4698   19.4303 C.3     867      M_A    0.0000
   5054 C          64.9227   71.0016   19.6865 C.3     867      M_A    0.0000
   5055 H          66.5914   70.8247   19.2490 H       867      M_A    0.0000
   5056 H          66.3423   71.8933   20.1299 H       867      M_A    0.0000
   5057 H          64.7167   70.3803   19.1027 H       867      M_A    0.0000
   5058 H          64.9360   70.6136   20.4729 H       867      M_A    0.0000
   5059 C          64.0234   71.8744   19.6818 C.3     868      M_A    0.0000
   5060 C          62.9851   71.4742   20.1946 C.3     868      M_A    0.0000
   5061 H          64.3154   72.5833   20.1076 H       868      M_A    0.0000
   5062 H          63.8739   72.1218   18.8537 H       868      M_A    0.0000
   5063 H          62.2954   71.7335   19.7190 H       868      M_A    0.0000
   5064 H          62.9714   70.5973   20.2009 H       868      M_A    0.0000
   5065 C          62.8449   71.8887   21.3689 C.3     869      M_A    0.0000
   5066 C          61.6685   71.9330   21.7084 C.3     869      M_A    0.0000
   5067 H          63.2943   71.3643   21.9094 H       869      M_A    0.0000
   5068 H          63.2065   72.6852   21.4326 H       869      M_A    0.0000
   5069 H          61.1607   72.0976   21.0125 H       869      M_A    0.0000
   5070 H          61.4173   71.1547   22.0250 H       869      M_A    0.0000
   5071 C          61.4579   72.8100   22.5785 C.3     870      M_A    0.0000
   5072 C          60.2783   72.8666   22.9048 C.3     870      M_A    0.0000
   5073 H          61.9559   72.6380   23.2796 H       870      M_A    0.0000
   5074 H          61.7213   73.5864   22.2668 H       870      M_A    0.0000
   5075 H          60.1994   72.7449   23.7697 H       870      M_A    0.0000
   5076 H          59.9564   73.6640   22.7322 H       870      M_A    0.0000
   5077 C          59.5798   72.0120   22.3113 C.3     871      M_A    0.0000
   5078 C          58.4036   72.3462   22.2336 C.3     871      M_A    0.0000
   5079 H          59.9099   71.8850   21.5087 H       871      M_A    0.0000
   5080 H          59.6478   71.2474   22.7354 H       871      M_A    0.0000
   5081 H          58.2231   72.9542   22.8394 H       871      M_A    0.0000
   5082 H          58.2464   72.7141   21.4531 H       871      M_A    0.0000
   5083 C          57.6234   71.3778   22.3883 C.3     872      M_A    0.0000
   5084 C          56.5024   71.7346   22.7306 C.3     872      M_A    0.0000
   5085 H          57.5793   70.9276   21.6369 H       872      M_A    0.0000
   5086 H          57.9623   70.8347   22.9877 H       872      M_A    0.0000
   5087 H          56.5431   72.1605   23.4962 H       872      M_A    0.0000
   5088 H          56.1748   72.2996   22.1453 H       872      M_A    0.0000
   5089 C          55.7115   70.7695   22.8469 C.3     873      M_A    0.0000
   5090 C          55.1265   70.7756   23.9234 C.2     873      M_A    0.0000
   5091 H          55.1318   70.7983   22.1894 H       873      M_A    0.0000
   5092 H          56.1615   70.0225   22.7533 H       873      M_A    0.0000
   5093 H          55.7062   70.7468   24.5809 H       873      M_A    0.0000
   5094 H          54.6766   71.5226   24.0169 H       873      M_A    0.0000
   5095 C          45.1578   83.5733   17.4460 C.2     874      M_A    0.0000
   5096 C          45.8666   83.7250   16.0956 C.3     874      M_A    0.0000
   5097 H          45.8318   83.1050   18.1741 H       874      M_A    0.0000
   5098 H          44.2924   82.9069   17.3439 H       874      M_A    0.0000
   5099 H          44.9800   83.7949   15.0544 H       874      M_A    0.0000
   5100 H          46.4686   84.9518   16.1824 H       874      M_A    0.0000
   5101 C          47.2273   82.3830   15.6763 C.3     875      M_A    0.0000
   5102 C          46.4633   80.7555   15.0227 C.3     875      M_A    0.0000
   5103 H          48.0889   82.9033   14.7478 H       875      M_A    0.0000
   5104 H          47.9655   82.1360   16.8028 H       875      M_A    0.0000
   5105 H          45.7960   80.1122   16.0306 H       875      M_A    0.0000
   5106 H          45.5386   81.0282   14.0504 H       875      M_A    0.0000
   5107 C          47.8135   79.5454   14.2873 C.3     876      M_A    0.0000
   5108 C          47.0434   77.9427   13.5817 C.3     876      M_A    0.0000
   5109 H          48.5089   80.2028   13.3079 H       876      M_A    0.0000
   5110 H          48.7149   79.2394   15.2716 H       876      M_A    0.0000
   5111 H          46.8486   77.0334   14.5868 H       876      M_A    0.0000
   5112 H          45.8108   78.2094   13.0484 H       876      M_A    0.0000
   5113 C          48.1646   77.1265   12.2014 C.3     877      M_A    0.0000
   5114 C          49.4919   75.9633   12.9396 C.3     877      M_A    0.0000
   5115 H          47.3628   76.4335   11.3343 H       877      M_A    0.0000
   5116 H          48.7633   78.1204   11.4744 H       877      M_A    0.0000
   5117 H          49.1285   75.5779   14.2023 H       877      M_A    0.0000
   5118 H          49.5837   74.8206   12.1908 H       877      M_A    0.0000
   5119 C          51.2552   76.8075   13.0209 C.3     878      M_A    0.0000
   5120 C          52.6353   75.5618   13.4715 C.3     878      M_A    0.0000
   5121 H          51.5232   77.3873   11.8097 H       878      M_A    0.0000
   5122 H          51.2177   77.8201   13.9419 H       878      M_A    0.0000
   5123 H          52.6854   75.3872   14.8287 H       878      M_A    0.0000
   5124 H          52.3575   74.3363   12.9275 H       878      M_A    0.0000
   5125 C          54.3947   76.1457   12.8454 C.3     879      M_A    0.0000
   5126 C          55.7865   74.9421   13.3685 C.3     879      M_A    0.0000
   5127 H          54.3618   76.2610   11.4814 H       879      M_A    0.0000
   5128 H          54.6460   77.3976   13.3399 H       879      M_A    0.0000
   5129 H          56.9367   75.2279   12.6826 H       879      M_A    0.0000
   5130 H          56.0713   75.1032   14.6982 H       879      M_A    0.0000
   5131 C          55.3091   73.0720   13.0478 C.3     880      M_A    0.0000
   5132 C          56.5423   71.8586   13.8641 C.3     880      M_A    0.0000
   5133 H          54.0457   72.8506   13.5271 H       880      M_A    0.0000
   5134 H          55.2609   72.8542   11.6968 H       880      M_A    0.0000
   5135 H          57.6466   71.7059   13.0691 H       880      M_A    0.0000
   5136 H          56.9834   72.3685   15.0560 H       880      M_A    0.0000
   5137 C          55.7487   70.0993   14.1859 C.3     881      M_A    0.0000
   5138 C          56.6538   69.1378   15.5701 C.3     881      M_A    0.0000
   5139 H          54.4294   70.2636   14.5139 H       881      M_A    0.0000
   5140 H          55.7776   69.3821   13.0199 H       881      M_A    0.0000
   5141 H          56.0487   69.3704   16.7762 H       881      M_A    0.0000
   5142 H          56.5671   67.7908   15.3399 H       881      M_A    0.0000
   5143 C          58.5415   69.6344   15.7054 C.3     882      M_A    0.0000
   5144 C          59.7065   68.1791   15.2760 C.3     882      M_A    0.0000
   5145 H          58.7812   70.6906   14.8676 H       882      M_A    0.0000
   5146 H          58.7916   70.0765   16.9770 H       882      M_A    0.0000
   5147 H          61.0125   68.5668   15.4135 H       882      M_A    0.0000
   5148 H          59.5089   67.1453   16.1518 H       882      M_A    0.0000
   5149 C          59.4322   67.5225   13.4533 C.3     883      M_A    0.0000
   5150 C          59.6838   65.6310   13.3185 C.3     883      M_A    0.0000
   5151 H          58.1677   67.8580   13.0490 H       883      M_A    0.0000
   5152 H          60.2983   68.1723   12.6151 H       883      M_A    0.0000
   5153 H          59.5806   65.2355   12.0116 H       883      M_A    0.0000
   5154 H          60.9447   65.2943   13.7328 H       883      M_A    0.0000
   5155 C          58.3820   64.6319   14.3842 C.3     884      M_A    0.0000
   5156 C          56.9795   63.8954   13.3117 C.3     884      M_A    0.0000
   5157 H          59.0347   63.6323   15.0547 H       884      M_A    0.0000
   5158 H          57.8572   65.4658   15.3352 H       884      M_A    0.0000
   5159 H          56.9005   64.5632   12.1189 H       884      M_A    0.0000
   5160 H          57.2544   62.5877   13.0128 H       884      M_A    0.0000
   5161 C          55.2395   63.9865   14.2019 C.3     885      M_A    0.0000
   5162 C          54.1286   62.4881   13.7772 C.3     885      M_A    0.0000
   5163 H          55.4389   64.0546   15.5549 H       885      M_A    0.0000
   5164 H          54.6175   65.1505   13.8371 H       885      M_A    0.0000
   5165 H          53.2658   62.8151   12.7654 H       885      M_A    0.0000
   5166 H          54.8953   61.4498   13.3200 H       885      M_A    0.0000
   5167 C          53.0901   61.8746   15.3179 C.3     886      M_A    0.0000
   5168 C          51.6683   60.6989   14.8122 C.3     886      M_A    0.0000
   5169 H          53.9318   61.2437   16.1945 H       886      M_A    0.0000
   5170 H          52.5861   62.9661   15.9733 H       886      M_A    0.0000
   5171 H          50.5249   61.4165   14.5828 H       886      M_A    0.0000
   5172 H          51.9776   60.0661   13.6380 H       886      M_A    0.0000
   5173 C          51.3015   59.3479   16.1792 C.3     887      M_A    0.0000
   5174 C          49.7342   58.3245   15.7849 C.3     887      M_A    0.0000
   5175 H          52.3878   58.5211   16.2852 H       887      M_A    0.0000
   5176 H          51.1626   59.9718   17.3902 H       887      M_A    0.0000
   5177 H          48.8238   59.0987   15.1164 H       887      M_A    0.0000
   5178 H          50.0502   57.2831   14.9540 H       887      M_A    0.0000
   5179 C          48.8898   57.6098   17.3988 C.3     888      M_A    0.0000
   5180 C          46.9803   57.6872   17.3131 C.3     888      M_A    0.0000
   5181 H          49.2998   56.3153   17.5751 H       888      M_A    0.0000
   5182 H          49.3402   58.3158   18.4822 H       888      M_A    0.0000
   5183 H          46.5844   58.8473   16.7027 H       888      M_A    0.0000
   5184 H          46.5026   56.6573   16.5476 H       888      M_A    0.0000
   5185 C          46.1541   57.5927   19.0842 C.3     889      M_A    0.0000
   5186 C          44.2526   57.4068   18.9881 C.3     889      M_A    0.0000
   5187 H          46.6951   56.5367   19.7678 H       889      M_A    0.0000
   5188 H          46.4805   58.7232   19.7844 H       889      M_A    0.0000
   5189 H          43.7254   58.3825   18.1849 H       889      M_A    0.0000
   5190 H          43.9265   56.2068   18.4147 H       889      M_A    0.0000
   5191 C          43.4070   57.5147   20.7493 C.3     890      M_A    0.0000
   5192 C          42.1611   58.9615   20.8679 C.3     890      M_A    0.0000
   5193 H          42.7747   56.3282   21.0088 H       890      M_A    0.0000
   5194 H          44.3828   57.6563   21.6994 H       890      M_A    0.0000
   5195 H          41.6602   59.2526   19.6272 H       890      M_A    0.0000
   5196 H          41.0950   58.6003   21.6476 H       890      M_A    0.0000
   5197 C          42.9708   60.5779   21.6163 C.3     891      M_A    0.0000
   5198 C          43.9611   61.5642   20.3101 C.3     891      M_A    0.0000
   5199 H          41.9815   61.3623   22.1462 H       891      M_A    0.0000
   5200 H          43.7888   60.2215   22.6549 H       891      M_A    0.0000
   5201 H          43.8282   60.9785   19.0795 H       891      M_A    0.0000
   5202 H          43.4574   62.8326   20.1983 H       891      M_A    0.0000
   5203 C          45.8637   61.6779   20.7523 C.3     892      M_A    0.0000
   5204 C          46.5069   63.4793   20.7296 C.3     892      M_A    0.0000
   5205 H          46.0634   61.1235   21.9883 H       892      M_A    0.0000
   5206 H          46.5703   60.9158   19.8608 H       892      M_A    0.0000
   5207 H          46.3109   64.0323   19.4924 H       892      M_A    0.0000
   5208 H          45.7975   64.2424   21.6182 H       892      M_A    0.0000
   5209 C          48.4082   63.5936   21.1775 C.3     893      M_A    0.0000
   5210 C          48.6947   64.0041   23.0238 C.3     893      M_A    0.0000
   5211 H          49.0081   62.4036   20.8625 H       893      M_A    0.0000
   5212 H          48.9909   64.5487   20.3882 H       893      M_A    0.0000
   5213 H          49.9881   64.4086   23.2196 H       893      M_A    0.0000
   5214 H          47.8944   65.0488   23.4022 H       893      M_A    0.0000
   5215 C          48.3288   62.4752   24.1888 C.3     894      M_A    0.0000
   5216 C          47.9588   63.0074   25.9886 C.3     894      M_A    0.0000
   5217 H          47.2682   61.7754   23.6786 H       894      M_A    0.0000
   5218 H          49.4067   61.6312   24.1610 H       894      M_A    0.0000
   5219 H          47.5802   64.3230   26.0208 H       894      M_A    0.0000
   5220 H          46.9080   62.2837   26.4856 H       894      M_A    0.0000
   5221 C          49.5032   62.7667   27.1655 C.3     895      M_A    0.0000
   5222 C          50.3112   64.4313   27.6511 C.3     895      M_A    0.0000
   5223 H          49.1016   62.0944   28.2888 H       895      M_A    0.0000
   5224 H          50.4183   61.9669   26.5348 H       895      M_A    0.0000
   5225 H          49.3437   65.3569   27.9374 H       895      M_A    0.0000
   5226 H          51.0569   64.2769   28.7891 H       895      M_A    0.0000
   5227 C          51.4611   65.1384   26.2347 C.3     896      M_A    0.0000
   5228 C          52.4650   66.6622   26.8089 C.3     896      M_A    0.0000
   5229 H          52.3092   64.1471   25.8186 H       896      M_A    0.0000
   5230 H          50.6827   65.4678   25.1574 H       896      M_A    0.0000
   5231 H          51.6365   67.7426   26.9544 H       896      M_A    0.0000
   5232 H          53.0191   66.4233   28.0381 H       896      M_A    0.0000
   5233 C          53.8920   67.1262   25.5533 C.3     897      M_A    0.0000
   5234 C          53.7102   68.9054   24.8744 C.2     897      M_A    0.0000
   5235 H          55.0987   66.9858   26.1850 H       897      M_A    0.0000
   5236 H          53.8815   66.2265   24.5211 H       897      M_A    0.0000
   5237 H          52.5035   69.0459   24.2427 H       897      M_A    0.0000
   5238 H          53.7207   69.8051   25.9066 H       897      M_A    0.0000
   5239 C          29.6110   87.7567    8.8506 C.2     898      M_A    0.0000
   5240 C          28.3043   87.1063    8.3830 C.3     898      M_A    0.0000
   5241 H          29.9133   87.3397    9.8192 H       898      M_A    0.0000
   5242 H          29.4617   88.8328    9.0036 H       898      M_A    0.0000
   5243 H          27.7060   87.8297    7.8155 H       898      M_A    0.0000
   5244 H          28.5211   86.2738    7.7022 H       898      M_A    0.0000
   5245 C          27.4463   86.5696    9.5802 C.3     899      M_A    0.0000
   5246 C          27.8666   85.4390   10.5221 C.3     899      M_A    0.0000
   5247 H          27.1067   87.4347   10.1600 H       899      M_A    0.0000
   5248 H          26.5978   86.2503    8.9653 H       899      M_A    0.0000
   5249 H          27.5603   84.4721   10.1084 H       899      M_A    0.0000
   5250 H          28.9579   85.4112   10.6120 H       899      M_A    0.0000
   5251 C          27.2466   85.5958   11.9508 C.3     900      M_A    0.0000
   5252 C          27.9019   84.6641   12.9728 C.3     900      M_A    0.0000
   5253 H          27.3538   86.6382   12.2698 H       900      M_A    0.0000
   5254 H          26.1715   85.3935   11.8932 H       900      M_A    0.0000
   5255 H          27.3790   83.7018   12.9932 H       900      M_A    0.0000
   5256 H          28.9363   84.4539   12.6803 H       900      M_A    0.0000
   5257 C          27.8989   85.2707   14.4158 C.3     901      M_A    0.0000
   5258 C          29.2012   84.9857   15.1674 C.3     901      M_A    0.0000
   5259 H          27.7353   86.3514   14.3442 H       901      M_A    0.0000
   5260 H          27.0479   84.8598   14.9698 H       901      M_A    0.0000
   5261 H          29.1540   85.4116   16.1755 H       901      M_A    0.0000
   5262 H          29.3364   83.9054   15.2883 H       901      M_A    0.0000
   5263 C          30.4518   85.5713   14.4303 C.3     902      M_A    0.0000
   5264 C          31.7668   85.0835   15.0424 C.3     902      M_A    0.0000
   5265 H          30.4024   85.2896   13.3729 H       902      M_A    0.0000
   5266 H          30.4032   86.6650   14.4671 H       902      M_A    0.0000
   5267 H          31.9302   85.5639   16.0132 H       902      M_A    0.0000
   5268 H          31.7169   84.0054   15.2295 H       902      M_A    0.0000
   5269 C          32.9962   85.3792   14.1198 C.3     903      M_A    0.0000
   5270 C          34.1976   84.4914   14.4522 C.3     903      M_A    0.0000
   5271 H          32.6979   85.2322   13.0761 H       903      M_A    0.0000
   5272 H          33.2694   86.4350   14.2232 H       903      M_A    0.0000
   5273 H          34.1279   83.5449   13.9054 H       903      M_A    0.0000
   5274 H          35.1243   84.9758   14.1258 H       903      M_A    0.0000
   5275 C          34.3018   84.1831   15.9833 C.3     904      M_A    0.0000
   5276 C          35.2372   83.0078   16.2759 C.3     904      M_A    0.0000
   5277 H          34.6542   85.0816   16.5012 H       904      M_A    0.0000
   5278 H          33.2991   83.9702   16.3696 H       904      M_A    0.0000
   5279 H          34.8755   82.1052   15.7714 H       904      M_A    0.0000
   5280 H          36.2356   83.2136   15.8748 H       904      M_A    0.0000
   5281 C          35.3598   82.7144   17.8085 C.3     905      M_A    0.0000
   5282 C          36.1769   81.4524   18.0939 C.3     905      M_A    0.0000
   5283 H          35.8210   83.5792   18.2977 H       905      M_A    0.0000
   5284 H          34.3538   82.6139   18.2303 H       905      M_A    0.0000
   5285 H          35.9048   80.6609   17.3872 H       905      M_A    0.0000
   5286 H          37.2433   81.6538   17.9453 H       905      M_A    0.0000
   5287 C          35.9617   80.9233   19.5512 C.3     906      M_A    0.0000
   5288 C          37.1271   81.2813   20.4762 C.3     906      M_A    0.0000
   5289 H          35.0283   81.3408   19.9442 H       906      M_A    0.0000
   5290 H          35.8300   79.8364   19.5164 H       906      M_A    0.0000
   5291 H          38.0475   80.8041   20.1227 H       906      M_A    0.0000
   5292 H          37.3050   82.3620   20.4553 H       906      M_A    0.0000
   5293 C          36.8669   80.8414   21.9557 C.3     907      M_A    0.0000
   5294 C          37.6142   81.7195   22.9619 C.3     907      M_A    0.0000
   5295 H          35.7898   80.8796   22.1512 H       907      M_A    0.0000
   5296 H          37.1707   79.7954   22.0717 H       907      M_A    0.0000
   5297 H          36.9986   82.5827   23.2371 H       907      M_A    0.0000
   5298 H          37.8002   81.1589   23.8843 H       907      M_A    0.0000
   5299 C          38.9816   82.2338   22.3997 C.3     908      M_A    0.0000
   5300 C          39.3548   83.6111   22.9525 C.3     908      M_A    0.0000
   5301 H          39.7615   81.5057   22.6475 H       908      M_A    0.0000
   5302 H          38.9222   82.2714   21.3065 H       908      M_A    0.0000
   5303 H          38.4516   84.2118   23.1055 H       908      M_A    0.0000
   5304 H          39.8322   83.5056   23.9328 H       908      M_A    0.0000
   5305 C          40.3233   84.3898   22.0008 C.3     909      M_A    0.0000
   5306 C          41.3895   85.1714   22.7716 C.3     909      M_A    0.0000
   5307 H          40.7996   83.6756   21.3205 H       909      M_A    0.0000
   5308 H          39.7339   85.0720   21.3785 H       909      M_A    0.0000
   5309 H          40.9901   85.4992   23.7375 H       909      M_A    0.0000
   5310 H          42.2461   84.5242   22.9887 H       909      M_A    0.0000
   5311 C          41.8924   86.4257   21.9817 C.3     910      M_A    0.0000
   5312 C          43.3305   86.2603   21.4852 C.3     910      M_A    0.0000
   5313 H          41.2206   86.6023   21.1347 H       910      M_A    0.0000
   5314 H          41.8180   87.3050   22.6308 H       910      M_A    0.0000
   5315 H          44.0163   86.8259   22.1254 H       910      M_A    0.0000
   5316 H          43.6324   85.2094   21.5521 H       910      M_A    0.0000
   5317 C          43.5068   86.7428   20.0067 C.3     911      M_A    0.0000
   5318 C          43.2840   85.6139   18.9977 C.3     911      M_A    0.0000
   5319 H          42.8040   87.5611   19.8161 H       911      M_A    0.0000
   5320 H          44.5133   87.1588   19.8887 H       911      M_A    0.0000
   5321 H          42.5136   84.9278   19.3659 H       911      M_A    0.0000
   5322 H          42.9142   86.0235   18.0514 H       911      M_A    0.0000
   5323 C          44.5921   84.8009   18.7187 C.3     912      M_A    0.0000
   5324 C          44.8539   84.6192   17.2219 C.2     912      M_A    0.0000
   5325 H          45.4362   85.3183   19.1875 H       912      M_A    0.0000
   5326 H          44.5115   83.8238   19.2072 H       912      M_A    0.0000
   5327 H          44.0098   84.1018   16.7531 H       912      M_A    0.0000
   5328 H          44.9345   85.5963   16.7334 H       912      M_A    0.0000
   5329 C          61.6985   89.3580   26.5149 C.2     913      M_A    0.0000
   5330 C          62.0333   88.9164   25.0935 C.3     913      M_A    0.0000
   5331 H          62.1092   88.6467   27.2346 H       913      M_A    0.0000
   5332 H          60.6162   89.3619   26.6607 H       913      M_A    0.0000
   5333 H          61.5245   89.5592   24.3721 H       913      M_A    0.0000
   5334 H          63.1043   89.0255   24.9101 H       913      M_A    0.0000
   5335 C          61.6250   87.4349   24.8228 C.3     914      M_A    0.0000
   5336 C          62.4474   86.4487   25.6467 C.3     914      M_A    0.0000
   5337 H          60.5629   87.3159   25.0471 H       914      M_A    0.0000
   5338 H          61.7460   87.2254   23.7579 H       914      M_A    0.0000
   5339 H          63.5131   86.6460   25.5124 H       914      M_A    0.0000
   5340 H          62.2355   86.5808   26.7098 H       914      M_A    0.0000
   5341 C          62.1573   84.9659   25.2565 C.3     915      M_A    0.0000
   5342 C          63.2855   84.0271   25.6730 C.3     915      M_A    0.0000
   5343 H          61.2203   84.6558   25.7238 H       915      M_A    0.0000
   5344 H          62.0029   84.9098   24.1769 H       915      M_A    0.0000
   5345 H          64.0437   83.9817   24.8884 H       915      M_A    0.0000
   5346 H          63.7816   84.4113   26.5667 H       915      M_A    0.0000
   5347 C          62.7749   82.5814   25.9634 C.3     916      M_A    0.0000
   5348 C          63.7421   81.5145   25.4595 C.3     916      M_A    0.0000
   5349 H          62.6232   82.4712   27.0392 H       916      M_A    0.0000
   5350 H          61.7974   82.4524   25.4940 H       916      M_A    0.0000
   5351 H          64.2656   81.8734   24.5708 H       916      M_A    0.0000
   5352 H          64.5058   81.3150   26.2142 H       916      M_A    0.0000
   5353 C          63.0180   80.1770   25.1109 C.3     917      M_A    0.0000
   5354 C          63.9784   78.9922   25.0733 C.3     917      M_A    0.0000
   5355 H          62.2327   79.9991   25.8487 H       917      M_A    0.0000
   5356 H          62.5212   80.2871   24.1446 H       917      M_A    0.0000
   5357 H          64.3053   78.8076   24.0478 H       917      M_A    0.0000
   5358 H          64.8760   79.2193   25.6524 H       917      M_A    0.0000
   5359 C          63.3321   77.6888   25.6376 C.3     918      M_A    0.0000
   5360 C          62.5818   76.9044   24.5654 C.3     918      M_A    0.0000
   5361 H          64.1166   77.0680   26.0755 H       918      M_A    0.0000
   5362 H          62.6532   77.9558   26.4502 H       918      M_A    0.0000
   5363 H          62.9323   77.1970   23.5734 H       918      M_A    0.0000
   5364 H          62.7884   75.8371   24.6688 H       918      M_A    0.0000
   5365 C          61.0392   77.1278   24.6400 C.3     919      M_A    0.0000
   5366 C          60.2800   75.8328   24.9122 C.3     919      M_A    0.0000
   5367 H          60.8268   77.8582   25.4236 H       919      M_A    0.0000
   5368 H          60.7016   77.5693   23.7000 H       919      M_A    0.0000
   5369 H          60.4491   75.1219   24.1006 H       919      M_A    0.0000
   5370 H          60.6555   75.3631   25.8238 H       919      M_A    0.0000
   5371 C          58.7448   76.0678   25.0632 C.3     920      M_A    0.0000
   5372 C          57.9272   74.8686   24.5931 C.3     920      M_A    0.0000
   5373 H          58.5232   76.2847   26.1103 H       920      M_A    0.0000
   5374 H          58.4671   76.9570   24.4933 H       920      M_A    0.0000
   5375 H          58.1817   73.9868   25.1848 H       920      M_A    0.0000
   5376 H          56.8630   75.0558   24.7511 H       920      M_A    0.0000
   5377 C          58.1627   74.5472   23.0844 C.3     921      M_A    0.0000
   5378 C          56.9127   73.9906   22.4098 C.3     921      M_A    0.0000
   5379 H          58.4880   75.4579   22.5771 H       921      M_A    0.0000
   5380 H          58.9834   73.8315   23.0009 H       921      M_A    0.0000
   5381 H          56.2648   74.8089   22.0883 H       921      M_A    0.0000
   5382 H          57.1880   73.4365   21.5099 H       921      M_A    0.0000
   5383 C          56.1018   73.0479   23.3526 C.3     922      M_A    0.0000
   5384 C          54.6350   72.9455   22.9457 C.3     922      M_A    0.0000
   5385 H          56.5632   72.0581   23.3422 H       922      M_A    0.0000
   5386 H          56.1814   73.4203   24.3760 H       922      M_A    0.0000
   5387 H          54.0323   73.6342   23.5415 H       922      M_A    0.0000
   5388 H          54.5140   73.2448   21.9025 H       922      M_A    0.0000
   5389 C          54.0715   71.5012   23.1232 C.3     923      M_A    0.0000
   5390 C          53.5622   71.2492   24.5391 C.3     923      M_A    0.0000
   5391 H          53.2657   71.3467   22.4024 H       923      M_A    0.0000
   5392 H          54.8565   70.7840   22.8744 H       923      M_A    0.0000
   5393 H          52.6618   71.8389   24.7237 H       923      M_A    0.0000
   5394 H          53.2795   70.2007   24.6542 H       923      M_A    0.0000
   5395 C          54.6273   71.6048   25.6227 C.3     924      M_A    0.0000
   5396 C          55.0924   70.3777   26.4009 C.2     924      M_A    0.0000
   5397 H          55.4790   72.0840   25.1352 H       924      M_A    0.0000
   5398 H          54.2014   72.3424   26.3062 H       924      M_A    0.0000
   5399 H          54.2407   69.8985   26.8884 H       924      M_A    0.0000
   5400 H          55.5183   69.6401   25.7174 H       924      M_A    0.0000
   5401 C          63.2520   82.7751   40.1264 C.2     925      M_A    0.0000
   5402 C          63.6289   84.2550   40.2555 C.3     925      M_A    0.0000
   5403 H          63.7523   82.1899   40.9080 H       925      M_A    0.0000
   5404 H          63.6020   82.3802   39.1646 H       925      M_A    0.0000
   5405 H          63.2189   84.8227   39.4110 H       925      M_A    0.0000
   5406 H          63.1848   84.6784   41.1649 H       925      M_A    0.0000
   5407 C          65.1809   84.4708   40.3033 C.3     926      M_A    0.0000
   5408 C          65.9556   83.1644   40.0985 C.3     926      M_A    0.0000
   5409 H          65.4606   85.1989   39.5319 H       926      M_A    0.0000
   5410 H          65.4461   84.9179   41.2694 H       926      M_A    0.0000
   5411 H          66.2450   82.7425   41.0690 H       926      M_A    0.0000
   5412 H          65.3150   82.4198   39.6098 H       926      M_A    0.0000
   5413 C          67.2455   83.3682   39.2313 C.3     927      M_A    0.0000
   5414 C          67.9490   82.0435   38.9162 C.3     927      M_A    0.0000
   5415 H          66.9686   83.8778   38.3001 H       927      M_A    0.0000
   5416 H          67.9289   84.0391   39.7663 H       927      M_A    0.0000
   5417 H          68.2753   81.5605   39.8456 H       927      M_A    0.0000
   5418 H          67.2491   81.3521   38.4308 H       927      M_A    0.0000
   5419 C          69.1942   82.2390   37.9842 C.3     928      M_A    0.0000
   5420 C          69.8128   80.9045   37.5537 C.3     928      M_A    0.0000
   5421 H          68.8882   82.8140   37.1013 H       928      M_A    0.0000
   5422 H          69.9396   82.8461   38.5127 H       928      M_A    0.0000
   5423 H          69.0367   80.1312   37.4964 H       928      M_A    0.0000
   5424 H          70.2416   80.9956   36.5480 H       928      M_A    0.0000
   5425 C          70.9333   80.4238   38.5390 C.3     929      M_A    0.0000
   5426 C          71.5266   79.0715   38.1287 C.3     929      M_A    0.0000
   5427 H          71.7223   81.1851   38.5758 H       929      M_A    0.0000
   5428 H          70.5113   80.3584   39.5496 H       929      M_A    0.0000
   5429 H          70.7315   78.3194   38.0528 H       929      M_A    0.0000
   5430 H          71.9843   79.1476   37.1346 H       929      M_A    0.0000
   5431 C          72.6069   78.5638   39.1449 C.3     930      M_A    0.0000
   5432 C          73.1700   77.1921   38.7570 C.3     930      M_A    0.0000
   5433 H          73.4170   79.3017   39.1978 H       930      M_A    0.0000
   5434 H          72.1577   78.5169   40.1446 H       930      M_A    0.0000
   5435 H          73.7972   77.2825   37.8615 H       930      M_A    0.0000
   5436 H          73.8165   76.8109   39.5572 H       930      M_A    0.0000
   5437 C          72.0392   76.1429   38.4781 C.3     931      M_A    0.0000
   5438 C          72.5835   74.7132   38.3847 C.3     931      M_A    0.0000
   5439 H          71.2906   76.2090   39.2773 H       931      M_A    0.0000
   5440 H          71.5287   76.4127   37.5452 H       931      M_A    0.0000
   5441 H          73.3348   74.6480   37.5879 H       931      M_A    0.0000
   5442 H          73.0906   74.4420   39.3189 H       931      M_A    0.0000
   5443 C          71.4533   73.6646   38.1005 C.3     932      M_A    0.0000
   5444 C          71.7819   72.2848   38.6812 C.3     932      M_A    0.0000
   5445 H          70.5117   74.0362   38.5235 H       932      M_A    0.0000
   5446 H          71.3041   73.5906   37.0162 H       932      M_A    0.0000
   5447 H          72.8559   72.0826   38.5859 H       932      M_A    0.0000
   5448 H          71.5512   72.2632   39.7535 H       932      M_A    0.0000
   5449 C          70.9865   71.1362   37.9701 C.3     933      M_A    0.0000
   5450 C          70.3934   70.1360   38.9685 C.3     933      M_A    0.0000
   5451 H          70.1876   71.5818   37.3645 H       933      M_A    0.0000
   5452 H          71.6585   70.6193   37.2739 H       933      M_A    0.0000
   5453 H          71.1285   69.9024   39.7486 H       933      M_A    0.0000
   5454 H          69.5267   70.5788   39.4748 H       933      M_A    0.0000
   5455 C          69.9476   68.8010   38.2782 C.3     934      M_A    0.0000
   5456 C          68.5145   68.4051   38.6502 C.3     934      M_A    0.0000
   5457 H          70.0352   68.9186   37.1910 H       934      M_A    0.0000
   5458 H          70.6447   68.0042   38.5660 H       934      M_A    0.0000
   5459 H          68.2491   68.8276   39.6273 H       934      M_A    0.0000
   5460 H          67.8077   68.8243   37.9234 H       934      M_A    0.0000
   5461 C          68.3223   66.8502   38.7030 C.3     935      M_A    0.0000
   5462 C          67.3103   66.3544   37.6642 C.3     935      M_A    0.0000
   5463 H          69.2944   66.3681   38.5411 H       935      M_A    0.0000
   5464 H          67.9949   66.5684   39.7114 H       935      M_A    0.0000
   5465 H          66.6273   67.1669   37.3869 H       935      M_A    0.0000
   5466 H          67.8303   66.0530   36.7465 H       935      M_A    0.0000
   5467 C          66.4665   65.1417   38.1884 C.3     936      M_A    0.0000
   5468 C          65.2068   64.9041   37.3483 C.3     936      M_A    0.0000
   5469 H          67.0969   64.2438   38.1833 H       936      M_A    0.0000
   5470 H          66.1918   65.3278   39.2341 H       936      M_A    0.0000
   5471 H          64.3982   65.5629   37.6884 H       936      M_A    0.0000
   5472 H          65.4008   65.1592   36.2991 H       936      M_A    0.0000
   5473 C          64.7136   63.4181   37.4243 C.3     937      M_A    0.0000
   5474 C          63.2108   63.3186   37.7084 C.3     937      M_A    0.0000
   5475 H          64.9513   62.9178   36.4773 H       937      M_A    0.0000
   5476 H          65.2796   62.8972   38.2065 H       937      M_A    0.0000
   5477 H          63.0145   62.5009   38.4129 H       937      M_A    0.0000
   5478 H          62.8570   64.2396   38.1882 H       937      M_A    0.0000
   5479 C          62.3746   63.0745   36.4051 C.3     938      M_A    0.0000
   5480 C          61.3447   64.1826   36.1597 C.3     938      M_A    0.0000
   5481 H          63.0613   63.0037   35.5525 H       938      M_A    0.0000
   5482 H          61.8705   62.1034   36.4851 H       938      M_A    0.0000
   5483 H          60.6534   64.2485   37.0090 H       938      M_A    0.0000
   5484 H          61.8480   65.1547   36.0871 H       938      M_A    0.0000
   5485 C          60.5156   63.9439   34.8508 C.3     939      M_A    0.0000
   5486 C          59.5540   65.0997   34.5534 C.3     939      M_A    0.0000
   5487 H          61.2099   63.8071   34.0125 H       939      M_A    0.0000
   5488 H          59.9561   63.0058   34.9528 H       939      M_A    0.0000
   5489 H          58.8152   65.1912   35.3592 H       939      M_A    0.0000
   5490 H          60.1043   66.0482   34.5215 H       939      M_A    0.0000
   5491 C          58.7977   64.9084   33.1937 C.3     940      M_A    0.0000
   5492 C          57.2993   64.6550   33.3931 C.3     940      M_A    0.0000
   5493 H          58.9490   65.8024   32.5761 H       940      M_A    0.0000
   5494 H          59.2520   64.0701   32.6512 H       940      M_A    0.0000
   5495 H          57.1102   64.3022   34.4145 H       940      M_A    0.0000
   5496 H          56.7404   65.5916   33.2748 H       940      M_A    0.0000
   5497 C          56.7356   63.5988   32.3812 C.3     941      M_A    0.0000
   5498 C          55.2514   63.3000   32.6201 C.3     941      M_A    0.0000
   5499 H          56.8845   63.9724   31.3605 H       941      M_A    0.0000
   5500 H          57.3237   62.6768   32.4681 H       941      M_A    0.0000
   5501 H          55.1444   62.4572   33.3143 H       941      M_A    0.0000
   5502 H          54.7657   64.1620   33.0939 H       941      M_A    0.0000
   5503 C          54.4925   62.9596   31.2913 C.3     942      M_A    0.0000
   5504 C          53.6748   61.6682   31.4039 C.3     942      M_A    0.0000
   5505 H          53.8355   63.7997   31.0342 H       942      M_A    0.0000
   5506 H          55.2243   62.8719   30.4787 H       942      M_A    0.0000
   5507 H          54.2783   60.8114   31.0798 H       942      M_A    0.0000
   5508 H          53.4037   61.4847   32.4510 H       942      M_A    0.0000
   5509 C          52.3649   61.7177   30.5441 C.3     943      M_A    0.0000
   5510 C          51.4269   60.5439   30.8466 C.3     943      M_A    0.0000
   5511 H          51.8518   62.6682   30.7357 H       943      M_A    0.0000
   5512 H          52.6389   61.7161   29.4818 H       943      M_A    0.0000
   5513 H          51.5816   59.7407   30.1155 H       943      M_A    0.0000
   5514 H          51.6585   60.1217   31.8323 H       943      M_A    0.0000
   5515 C          49.9178   60.9673   30.8202 C.3     944      M_A    0.0000
   5516 C          49.0226   59.9738   31.5689 C.3     944      M_A    0.0000
   5517 H          49.8231   61.9666   31.2629 H       944      M_A    0.0000
   5518 H          49.5929   61.0534   29.7759 H       944      M_A    0.0000
   5519 H          49.4792   58.9764   31.5614 H       944      M_A    0.0000
   5520 H          48.9300   60.2700   32.6212 H       944      M_A    0.0000
   5521 C          47.5885   59.8778   30.9430 C.3     945      M_A    0.0000
   5522 C          47.4040   58.6072   30.1060 C.3     945      M_A    0.0000
   5523 H          46.8473   59.9067   31.7512 H       945      M_A    0.0000
   5524 H          47.4132   60.7655   30.3228 H       945      M_A    0.0000
   5525 H          48.3815   58.2060   29.8107 H       945      M_A    0.0000
   5526 H          46.9126   57.8303   30.7048 H       945      M_A    0.0000
   5527 C          46.5525   58.8645   28.8152 C.3     946      M_A    0.0000
   5528 C          47.0846   58.0899   27.6044 C.3     946      M_A    0.0000
   5529 H          45.5119   58.5807   29.0156 H       946      M_A    0.0000
   5530 H          46.5501   59.9406   28.6019 H       946      M_A    0.0000
   5531 H          48.1660   57.9341   27.7031 H       946      M_A    0.0000
   5532 H          46.6253   57.0945   27.5632 H       946      M_A    0.0000
   5533 C          46.8024   58.8329   26.2531 C.3     947      M_A    0.0000
   5534 C          46.7788   57.8745   25.0573 C.3     947      M_A    0.0000
   5535 H          45.8430   59.3590   26.3325 H       947      M_A    0.0000
   5536 H          47.5716   59.6009   26.1046 H       947      M_A    0.0000
   5537 H          46.9906   58.4232   24.1312 H       947      M_A    0.0000
   5538 H          47.5682   57.1202   25.1641 H       947      M_A    0.0000
   5539 C          45.3994   57.1447   24.9080 C.3     948      M_A    0.0000
   5540 C          45.5581   55.6908   24.4497 C.3     948      M_A    0.0000
   5541 H          44.8744   57.1806   25.8705 H       948      M_A    0.0000
   5542 H          44.7815   57.6997   24.1912 H       948      M_A    0.0000
   5543 H          46.1799   55.6467   23.5469 H       948      M_A    0.0000
   5544 H          46.0791   55.1085   25.2198 H       948      M_A    0.0000
   5545 C          44.1792   55.0093   24.1474 C.3     949      M_A    0.0000
   5546 C          43.6764   54.1679   25.3257 C.3     949      M_A    0.0000
   5547 H          43.4464   55.7878   23.9014 H       949      M_A    0.0000
   5548 H          44.2835   54.3811   23.2541 H       949      M_A    0.0000
   5549 H          42.8582   53.5141   24.9991 H       949      M_A    0.0000
   5550 H          44.4776   53.5124   25.6888 H       949      M_A    0.0000
   5551 C          43.1705   55.0543   26.5156 C.3     950      M_A    0.0000
   5552 C          41.6407   55.1209   26.5809 C.3     950      M_A    0.0000
   5553 H          43.5697   54.6485   27.4535 H       950      M_A    0.0000
   5554 H          43.5867   56.0635   26.4066 H       950      M_A    0.0000
   5555 H          41.2594   54.8987   25.7011 H       950      M_A    0.0000
   5556 H          41.2875   54.4585   27.2175 H       950      M_A    0.0000
   5557 C          41.1914   56.3987   26.9601 C.3     951      M_A    0.0000
   5558 C          40.5696   57.0603   25.9273 C.3     951      M_A    0.0000
   5559 H          40.5742   56.3050   27.7211 H       951      M_A    0.0000
   5560 H          41.9600   56.9225   27.2824 H       951      M_A    0.0000
   5561 H          40.2738   56.4167   25.2438 H       951      M_A    0.0000
   5562 H          39.7610   57.5151   26.2561 H       951      M_A    0.0000
   5563 C          41.4099   58.0114   25.3209 C.3     952      M_A    0.0000
   5564 C          41.2692   59.2611   25.8772 C.3     952      M_A    0.0000
   5565 H          42.3429   57.7086   25.4029 H       952      M_A    0.0000
   5566 H          41.2075   58.0457   24.3582 H       952      M_A    0.0000
   5567 H          40.8697   59.1884   26.7738 H       952      M_A    0.0000
   5568 H          42.1523   59.6798   25.9943 H       952      M_A    0.0000
   5569 C          40.4669   60.1074   25.0907 C.3     953      M_A    0.0000
   5570 C          40.2824   61.3395   25.6727 C.3     953      M_A    0.0000
   5571 H          40.8870   60.2112   24.2066 H       953      M_A    0.0000
   5572 H          39.5973   59.6712   24.9410 H       953      M_A    0.0000
   5573 H          39.4248   61.3598   26.1553 H       953      M_A    0.0000
   5574 H          40.9864   61.5063   26.3402 H       953      M_A    0.0000
   5575 C          40.2963   62.3823   24.7289 C.3     954      M_A    0.0000
   5576 C          40.9993   63.4777   25.1728 C.3     954      M_A    0.0000
   5577 H          40.6885   62.0465   23.8908 H       954      M_A    0.0000
   5578 H          39.3679   62.6374   24.5242 H       954      M_A    0.0000
   5579 H          40.3848   64.1324   25.5761 H       954      M_A    0.0000
   5580 H          41.6305   63.2101   25.8791 H       954      M_A    0.0000
   5581 C          41.7161   64.1060   24.1385 C.3     955      M_A    0.0000
   5582 C          42.4589   65.1710   24.5915 C.3     955      M_A    0.0000
   5583 H          42.3038   63.4421   23.7110 H       955      M_A    0.0000
   5584 H          41.0808   64.4064   23.4493 H       955      M_A    0.0000
   5585 H          41.8974   65.9781   24.6390 H       955      M_A    0.0000
   5586 H          42.7787   64.9949   25.5055 H       955      M_A    0.0000
   5587 C          43.5667   65.4373   23.7668 C.3     956      M_A    0.0000
   5588 C          43.8983   66.7719   23.7544 C.3     956      M_A    0.0000
   5589 H          44.3314   64.9025   24.0803 H       956      M_A    0.0000
   5590 H          43.3633   65.1315   22.8536 H       956      M_A    0.0000
   5591 H          44.8419   66.8828   23.4975 H       956      M_A    0.0000
   5592 H          43.3635   67.2462   23.0777 H       956      M_A    0.0000
   5593 C          43.6937   67.3837   25.0043 C.3     957      M_A    0.0000
   5594 C          43.7814   68.7542   24.9342 C.3     957      M_A    0.0000
   5595 H          42.8094   67.1190   25.3461 H       957      M_A    0.0000
   5596 H          44.3587   67.0350   25.6408 H       957      M_A    0.0000
   5597 H          44.1113   69.1154   25.7884 H       957      M_A    0.0000
   5598 H          44.4343   69.0159   24.2457 H       957      M_A    0.0000
   5599 C          42.5439   69.3530   24.6365 C.3     958      M_A    0.0000
   5600 C          42.6314   70.7236   24.5676 C.3     958      M_A    0.0000
   5601 H          42.2144   68.9924   23.7820 H       958      M_A    0.0000
   5602 H          41.8908   69.0906   25.3246 H       958      M_A    0.0000
   5603 H          43.1117   70.9905   23.7509 H       958      M_A    0.0000
   5604 H          41.7309   71.1166   24.5071 H       958      M_A    0.0000
   5605 C          43.2917   71.2724   25.6817 C.3     959      M_A    0.0000
   5606 C          43.6966   72.5679   25.4615 C.3     959      M_A    0.0000
   5607 H          42.6882   71.2347   26.4584 H       959      M_A    0.0000
   5608 H          44.0684   70.7084   25.8996 H       959      M_A    0.0000
   5609 H          43.1794   72.9623   24.7226 H       959      M_A    0.0000
   5610 H          43.5164   73.1178   26.2577 H       959      M_A    0.0000
   5611 C          45.0661   72.6531   25.1522 C.3     960      M_A    0.0000
   5612 C          45.4917   73.9545   25.0247 C.3     960      M_A    0.0000
   5613 H          45.5796   72.1976   25.8577 H       960      M_A    0.0000
   5614 H          45.2340   72.1598   24.3171 H       960      M_A    0.0000
   5615 H          46.1276   74.1736   25.7434 H       960      M_A    0.0000
   5616 H          45.9748   74.0700   24.1749 H       960      M_A    0.0000
   5617 C          44.4253   74.8707   25.0681 C.3     961      M_A    0.0000
   5618 C          44.8309   76.1559   24.7944 C.3     961      M_A    0.0000
   5619 H          43.7383   74.5888   24.4221 H       961      M_A    0.0000
   5620 H          44.0088   74.8308   25.9591 H       961      M_A    0.0000
   5621 H          44.4818   76.4408   23.9193 H       961      M_A    0.0000
   5622 H          44.4599   76.7764   25.4624 H       961      M_A    0.0000
   5623 C          46.2317   76.2825   24.7867 C.3     962      M_A    0.0000
   5624 C          46.6386   77.5493   24.4393 C.3     962      M_A    0.0000
   5625 H          46.5762   76.0503   25.6791 H       962      M_A    0.0000
   5626 H          46.6064   75.6235   24.1588 H       962      M_A    0.0000
   5627 H          46.1764   77.8394   23.6200 H       962      M_A    0.0000
   5628 H          46.3907   78.1889   25.1452 H       962      M_A    0.0000
   5629 C          48.0270   77.6238   24.2271 C.3     963      M_A    0.0000
   5630 C          48.4857   78.9202   24.2293 C.3     963      M_A    0.0000
   5631 H          48.4833   77.1032   24.9269 H       963      M_A    0.0000
   5632 H          48.2405   77.1917   23.3688 H       963      M_A    0.0000
   5633 H          48.3376   79.3321   23.3476 H       963      M_A    0.0000
   5634 H          47.9788   79.4565   24.8806 H       963      M_A    0.0000
   5635 C          49.8544   79.0008   24.5432 C.3     964      M_A    0.0000
   5636 C          50.1880   80.2065   25.1143 C.3     964      M_A    0.0000
   5637 H          50.0840   78.2633   25.1533 H       964      M_A    0.0000
   5638 H          50.3773   78.8606   23.7210 H       964      M_A    0.0000
   5639 H          49.6465   80.9279   24.7203 H       964      M_A    0.0000
   5640 H          49.9827   80.1923   26.0768 H       964      M_A    0.0000
   5641 C          51.5493   80.5177   24.9457 C.3     965      M_A    0.0000
   5642 C          51.9544   81.5452   25.7649 C.3     965      M_A    0.0000
   5643 H          52.0839   79.7112   25.1264 H       965      M_A    0.0000
   5644 H          51.7061   80.7554   24.0034 H       965      M_A    0.0000
   5645 H          51.7740   82.4116   25.3340 H       965      M_A    0.0000
   5646 H          51.4373   81.5330   26.6024 H       965      M_A    0.0000
   5647 C          53.3239   81.4702   26.0766 C.3     966      M_A    0.0000
   5648 C          53.7042   82.4276   26.9876 C.3     966      M_A    0.0000
   5649 H          53.5205   80.5723   26.4286 H       966      M_A    0.0000
   5650 H          53.8440   81.5686   25.2467 H       966      M_A    0.0000
   5651 H          53.0495   83.1625   26.9981 H       966      M_A    0.0000
   5652 H          53.7146   82.0452   27.8945 H       966      M_A    0.0000
   5653 C          54.9760   82.9575   26.7045 C.3     967      M_A    0.0000
   5654 C          55.6051   83.4329   27.8311 C.3     967      M_A    0.0000
   5655 H          55.5242   82.2578   26.2816 H       967      M_A    0.0000
   5656 H          54.8787   83.6792   26.0422 H       967      M_A    0.0000
   5657 H          54.9524   83.8739   28.4214 H       967      M_A    0.0000
   5658 H          55.9899   82.6858   28.3435 H       967      M_A    0.0000
   5659 C          56.6290   84.3471   27.5242 C.3     968      M_A    0.0000
   5660 C          57.1236   84.9713   28.6452 C.3     968      M_A    0.0000
   5661 H          57.3518   83.8690   27.0574 H       968      M_A    0.0000
   5662 H          56.2785   85.0157   26.8925 H       968      M_A    0.0000
   5663 H          57.7343   85.6982   28.3851 H       968      M_A    0.0000
   5664 H          56.3891   85.3870   29.1519 H       968      M_A    0.0000
   5665 C          57.8113   84.0822   29.4907 C.3     969      M_A    0.0000
   5666 C          58.2797   84.7001   30.6265 C.3     969      M_A    0.0000
   5667 H          57.2074   83.3436   29.7330 H       969      M_A    0.0000
   5668 H          58.5593   83.6833   28.9906 H       969      M_A    0.0000
   5669 H          57.7403   85.4998   30.8225 H       969      M_A    0.0000
   5670 H          58.1862   84.0993   31.4005 H       969      M_A    0.0000
   5671 C          59.6286   85.0809   30.5084 C.3     970      M_A    0.0000
   5672 C          59.8284   86.4007   30.8388 C.3     970      M_A    0.0000
   5673 H          60.1737   84.5016   31.0881 H       970      M_A    0.0000
   5674 H          59.9252   84.9157   29.5845 H       970      M_A    0.0000
   5675 H          59.4663   86.5826   31.7359 H       970      M_A    0.0000
   5676 H          60.7922   86.5967   30.8779 H       970      M_A    0.0000
   5677 C          59.2243   87.2776   29.9199 C.3     971      M_A    0.0000
   5678 C          60.1425   88.0809   29.2852 C.3     971      M_A    0.0000
   5679 H          58.7243   86.7481   29.2576 H       971      M_A    0.0000
   5680 H          58.5640   87.8309   30.3962 H       971      M_A    0.0000
   5681 H          60.1807   88.9614   29.7236 H       971      M_A    0.0000
   5682 H          61.0423   87.6889   29.3595 H       971      M_A    0.0000
   5683 C          59.8390   88.2650   27.9242 C.3     972      M_A    0.0000
   5684 C          60.6719   89.1797   27.3236 C.2     972      M_A    0.0000
   5685 H          59.9036   87.3970   27.4645 H       972      M_A    0.0000
   5686 H          58.9027   88.5579   27.8447 H       972      M_A    0.0000
   5687 H          60.6073   90.0477   27.7833 H       972      M_A    0.0000
   5688 H          61.6083   88.8867   27.4031 H       972      M_A    0.0000
   5689 C          78.0375   90.7575   31.1103 C.2     973      M_A    0.0000
   5690 C          77.9053   89.7199   30.4454 C.3     973      M_A    0.0000
   5691 H          77.4316   90.7832   31.7577 H       973      M_A    0.0000
   5692 H          77.8933   91.4674   30.5981 H       973      M_A    0.0000
   5693 H          78.4839   89.7137   29.7730 H       973      M_A    0.0000
   5694 H          78.0900   89.0117   30.9469 H       973      M_A    0.0000
   5695 C          76.7338   89.5950   29.9776 C.3     974      M_A    0.0000
   5696 C          76.2917   90.6617   29.5272 C.3     974      M_A    0.0000
   5697 H          76.7444   88.9772   29.3410 H       974      M_A    0.0000
   5698 H          76.2008   89.2913   30.6185 H       974      M_A    0.0000
   5699 H          76.2983   91.2846   30.1589 H       974      M_A    0.0000
   5700 H          76.8146   90.9560   28.8738 H       974      M_A    0.0000
   5701 C          75.1103   90.5427   29.0830 C.3     975      M_A    0.0000
   5702 C          74.3382   91.3799   29.5718 C.3     975      M_A    0.0000
   5703 H          75.1275   90.6240   28.1997 H       975      M_A    0.0000
   5704 H          74.8203   89.7228   29.2578 H       975      M_A    0.0000
   5705 H          74.5454   91.5249   30.4222 H       975      M_A    0.0000
   5706 H          74.4263   92.1566   29.1522 H       975      M_A    0.0000
   5707 C          73.1265   91.0136   29.5033 C.3     976      M_A    0.0000
   5708 C          72.6051   91.3151   28.4201 C.3     976      M_A    0.0000
   5709 H          73.0857   90.1360   29.6268 H       976      M_A    0.0000
   5710 H          72.6770   91.3860   30.1714 H       976      M_A    0.0000
   5711 H          72.1527   92.0739   28.5010 H       976      M_A    0.0000
   5712 H          73.2328   91.4566   27.8093 H       976      M_A    0.0000
   5713 C          71.8197   90.4141   27.9977 C.3     977      M_A    0.0000
   5714 C          72.2447   89.8637   26.9718 C.3     977      M_A    0.0000
   5715 H          71.7028   89.8128   28.6394 H       977      M_A    0.0000
   5716 H          71.0256   90.7774   27.8412 H       977      M_A    0.0000
   5717 H          71.9446   90.2875   26.2525 H       977      M_A    0.0000
   5718 H          73.1301   89.9121   26.9451 H       977      M_A    0.0000
   5719 C          71.8999   88.6458   26.9020 C.3     978      M_A    0.0000
   5720 C          70.7582   88.5065   26.4403 C.3     978      M_A    0.0000
   5721 H          72.4867   88.2108   26.3985 H       978      M_A    0.0000
   5722 H          71.9458   88.2887   27.7128 H       978      M_A    0.0000
   5723 H          70.5526   89.1979   25.9237 H       978      M_A    0.0000
   5724 H          70.7241   87.7848   25.9255 H       978      M_A    0.0000
   5725 C          69.8816   88.4012   27.3500 C.3     979      M_A    0.0000
   5726 C          68.7340   88.5872   26.9204 C.3     979      M_A    0.0000
   5727 H          69.9430   87.5947   27.7143 H       979      M_A    0.0000
   5728 H          70.0644   88.9854   27.9922 H       979      M_A    0.0000
   5729 H          68.7585   89.1089   26.2033 H       979      M_A    0.0000
   5730 H          68.3771   87.8169   26.6629 H       979      M_A    0.0000
   5731 C          67.9768   89.1190   27.7869 C.3     980      M_A    0.0000
   5732 C          67.0106   89.7005   27.2729 C.3     980      M_A    0.0000
   5733 H          67.6921   88.4891   28.3430 H       980      M_A    0.0000
   5734 H          68.4531   89.6898   28.2710 H       980      M_A    0.0000
   5735 H          66.9180   90.5084   27.6276 H       980      M_A    0.0000
   5736 H          67.1527   89.8180   26.4051 H       980      M_A    0.0000
   5737 C          65.9273   89.0603   27.4265 C.3     981      M_A    0.0000
   5738 C          65.0313   89.7634   27.9154 C.3     981      M_A    0.0000
   5739 H          65.6691   88.7422   26.6396 H       981      M_A    0.0000
   5740 H          66.0812   88.3584   27.9468 H       981      M_A    0.0000
   5741 H          64.5723   89.2978   28.5150 H       981      M_A    0.0000
   5742 H          65.3866   90.4529   28.3460 H       981      M_A    0.0000
   5743 C          64.2294   90.2000   27.0360 C.3     982      M_A    0.0000
   5744 C          63.0442   90.0616   27.3710 C.2     982      M_A    0.0000
   5745 H          64.4058   91.0568   26.8884 H       982      M_A    0.0000
   5746 H          64.3817   89.7734   26.2732 H       982      M_A    0.0000
   5747 H          62.8679   89.2048   27.5186 H       982      M_A    0.0000
   5748 H          62.8919   90.4882   28.1338 H       982      M_A    0.0000
   5749 C          83.4838   81.1411   12.0222 C.2     983      M_A    0.0000
   5750 C          82.5212   80.2301   11.2524 C.3     983      M_A    0.0000
   5751 H          83.4165   80.9362   13.0978 H       983      M_A    0.0000
   5752 H          83.1997   82.1916   11.8832 H       983      M_A    0.0000
   5753 H          82.3574   80.5772   10.3435 H       983      M_A    0.0000
   5754 H          82.9864   79.3665   11.1463 H       983      M_A    0.0000
   5755 C          81.2807   80.0037   11.8828 C.3     984      M_A    0.0000
   5756 C          80.8884   81.0706   12.6622 C.3     984      M_A    0.0000
   5757 H          80.6010   79.8219   11.1912 H       984      M_A    0.0000
   5758 H          81.3485   79.1886   12.4345 H       984      M_A    0.0000
   5759 H          81.3649   81.8877   12.3818 H       984      M_A    0.0000
   5760 H          79.9259   81.2464   12.5353 H       984      M_A    0.0000
   5761 C          81.1331   80.8496   14.0328 C.3     985      M_A    0.0000
   5762 C          80.6432   81.8681   14.8218 C.3     985      M_A    0.0000
   5763 H          80.7228   79.9915   14.2948 H       985      M_A    0.0000
   5764 H          82.1052   80.7526   14.1707 H       985      M_A    0.0000
   5765 H          80.8634   82.7423   14.4211 H       985      M_A    0.0000
   5766 H          79.6590   81.8172   14.8673 H       985      M_A    0.0000
   5767 C          81.1615   81.8254   16.1322 C.3     986      M_A    0.0000
   5768 C          81.7342   83.0219   16.5066 C.3     986      M_A    0.0000
   5769 H          80.4333   81.5894   16.7546 H       986      M_A    0.0000
   5770 H          81.8276   81.0996   16.1872 H       986      M_A    0.0000
   5771 H          82.6553   83.0798   16.1580 H       986      M_A    0.0000
   5772 H          81.2338   83.7748   16.1115 H       986      M_A    0.0000
   5773 C          81.7673   83.1833   17.9067 C.3     987      M_A    0.0000
   5774 C          82.9832   82.8215   18.4457 C.3     987      M_A    0.0000
   5775 H          81.5682   84.1251   18.1231 H       987      M_A    0.0000
   5776 H          81.0456   82.6422   18.3064 H       987      M_A    0.0000
   5777 H          83.1446   81.8591   18.3004 H       987      M_A    0.0000
   5778 H          83.7127   83.3033   17.9886 H       987      M_A    0.0000
   5779 C          83.0565   83.0910   19.8275 C.3     988      M_A    0.0000
   5780 C          83.0976   81.9389   20.5830 C.3     988      M_A    0.0000
   5781 H          83.8580   83.6390   20.0025 H       988      M_A    0.0000
   5782 H          82.2773   83.6378   20.0867 H       988      M_A    0.0000
   5783 H          82.6926   81.1914   20.0823 H       988      M_A    0.0000
   5784 H          84.0340   81.6853   20.7625 H       988      M_A    0.0000
   5785 C          82.4219   82.0815   21.8120 C.3     989      M_A    0.0000
   5786 C          83.2761   82.4091   22.8429 C.3     989      M_A    0.0000
   5787 H          81.7276   82.7756   21.7145 H       989      M_A    0.0000
   5788 H          81.9526   81.2381   22.0167 H       989      M_A    0.0000
   5789 H          83.5871   81.5906   23.2976 H       989      M_A    0.0000
   5790 H          84.0793   82.8580   22.4869 H       989      M_A    0.0000
   5791 C          82.6673   83.2536   23.7935 C.3     990      M_A    0.0000
   5792 C          82.3923   82.5982   24.9744 C.3     990      M_A    0.0000
   5793 H          83.2623   84.0219   23.9636 H       990      M_A    0.0000
   5794 H          81.8359   83.6191   23.4079 H       990      M_A    0.0000
   5795 H          81.6233   81.9919   24.8537 H       990      M_A    0.0000
   5796 H          83.1591   82.0347   25.2350 H       990      M_A    0.0000
   5797 C          82.1060   83.4912   26.0270 C.3     991      M_A    0.0000
   5798 C          80.7522   83.6977   26.1832 C.3     991      M_A    0.0000
   5799 H          82.4921   83.1334   26.8614 H       991      M_A    0.0000
   5800 H          82.5607   84.3485   25.8492 H       991      M_A    0.0000
   5801 H          80.2527   82.8953   25.9003 H       991      M_A    0.0000
   5802 H          80.5397   83.8425   27.1357 H       991      M_A    0.0000
   5803 C          80.2915   84.8046   25.4415 C.3     992      M_A    0.0000
   5804 C          79.0334   84.5959   24.9185 C.3     992      M_A    0.0000
   5805 H          80.2873   85.5994   26.0259 H       992      M_A    0.0000
   5806 H          80.9332   84.9902   24.7155 H       992      M_A    0.0000
   5807 H          79.0234   83.7683   24.3814 H       992      M_A    0.0000
   5808 H          78.3809   84.4685   25.6474 H       992      M_A    0.0000
   5809 C          78.6068   85.6682   24.1088 C.3     993      M_A    0.0000
   5810 C          77.2382   85.6874   23.9460 C.3     993      M_A    0.0000
   5811 H          78.9110   86.5142   24.5153 H       993      M_A    0.0000
   5812 H          79.0510   85.5999   23.2306 H       993      M_A    0.0000
   5813 H          76.9927   85.2523   23.0953 H       993      M_A    0.0000
   5814 H          76.8047   85.1691   24.6648 H       993      M_A    0.0000
   5815 C          76.7177   86.9976   23.9532 C.3     994      M_A    0.0000
   5816 C          76.8000   87.5992   22.7158 C.3     994      M_A    0.0000
   5817 H          75.7779   86.9647   24.2515 H       994      M_A    0.0000
   5818 H          77.2088   87.5312   24.6221 H       994      M_A    0.0000
   5819 H          76.7177   86.9211   22.0038 H       994      M_A    0.0000
   5820 H          76.0503   88.2290   22.5953 H       994      M_A    0.0000
   5821 C          78.0124   88.2970   22.5406 C.3     995      M_A    0.0000
   5822 C          77.8392   89.6638   22.5829 C.3     995      M_A    0.0000
   5823 H          78.6462   88.0145   23.2419 H       995      M_A    0.0000
   5824 H          78.4094   88.0329   21.6768 H       995      M_A    0.0000
   5825 H          77.7691   90.0244   21.6673 H       995      M_A    0.0000
   5826 H          76.9926   89.8835   23.0395 H       995      M_A    0.0000
   5827 C          78.8970   90.3160   23.2485 C.3     996      M_A    0.0000
   5828 C          78.5352   90.7486   24.5062 C.3     996      M_A    0.0000
   5829 H          79.6630   89.6973   23.3109 H       996      M_A    0.0000
   5830 H          79.1943   91.0805   22.7003 H       996      M_A    0.0000
   5831 H          78.8267   91.6816   24.6399 H       996      M_A    0.0000
   5832 H          77.5527   90.7431   24.5961 H       996      M_A    0.0000
   5833 C          79.0894   89.9487   25.5263 C.3     997      M_A    0.0000
   5834 C          80.1675   90.5531   26.1363 C.3     997      M_A    0.0000
   5835 H          78.3890   89.7535   26.1932 H       997      M_A    0.0000
   5836 H          79.3612   89.0829   25.1392 H       997      M_A    0.0000
   5837 H          80.6723   91.0879   25.4786 H       997      M_A    0.0000
   5838 H          79.8554   91.1798   26.8314 H       997      M_A    0.0000
   5839 C          81.0407   89.6173   26.7273 C.3     998      M_A    0.0000
   5840 C          81.1686   89.8079   28.0863 C.3     998      M_A    0.0000
   5841 H          80.7044   88.7082   26.5433 H       998      M_A    0.0000
   5842 H          81.9231   89.6864   26.2915 H       998      M_A    0.0000
   5843 H          81.6985   90.6206   28.2656 H       998      M_A    0.0000
   5844 H          80.2813   89.9530   28.4926 H       998      M_A    0.0000
   5845 C          81.7866   88.7127   28.7237 C.3     999      M_A    0.0000
   5846 C          81.0163   88.2002   29.7453 C.2     999      M_A    0.0000
   5847 H          81.9657   88.0132   28.0514 H       999      M_A    0.0000
   5848 H          82.6631   89.0012   29.0728 H       999      M_A    0.0000
   5849 H          80.8372   88.8997   30.4176 H       999      M_A    0.0000
   5850 H          80.1398   87.9118   29.3961 H       999      M_A    0.0000
   5851 C          22.7165   86.2291   24.5402 C.2    1000      M_A    0.0000
   5852 C          21.9962   85.4142   25.6201 C.3    1000      M_A    0.0000
   5853 H          23.0012   85.5777   23.7047 H      1000      M_A    0.0000
   5854 H          23.6464   86.6489   24.9434 H      1000      M_A    0.0000
   5855 H          21.9127   86.0026   26.5423 H      1000      M_A    0.0000
   5856 H          20.9725   85.1855   25.2986 H      1000      M_A    0.0000
   5857 C          22.7364   84.0707   25.9432 C.3    1001      M_A    0.0000
   5858 C          24.1772   84.0611   25.4206 C.3    1001      M_A    0.0000
   5859 H          22.7291   83.9152   27.0292 H      1001      M_A    0.0000
   5860 H          22.1708   83.2404   25.5023 H      1001      M_A    0.0000
   5861 H          24.2273   84.5630   24.4464 H      1001      M_A    0.0000
   5862 H          24.8275   84.6261   26.0999 H      1001      M_A    0.0000
   5863 C          24.7449   82.6076   25.2701 C.3    1002      M_A    0.0000
   5864 C          26.2741   82.5687   25.3649 C.3    1002      M_A    0.0000
   5865 H          24.3035   81.9732   26.0487 H      1002      M_A    0.0000
   5866 H          24.4172   82.1980   24.3066 H      1002      M_A    0.0000
   5867 H          26.7169   83.1342   24.5356 H      1002      M_A    0.0000
   5868 H          26.6062   83.0550   26.2905 H      1002      M_A    0.0000
   5869 C          26.8342   81.1048   25.3341 C.3    1003      M_A    0.0000
   5870 C          28.3211   81.0440   25.7005 C.3    1003      M_A    0.0000
   5871 H          26.2501   80.4881   26.0285 H      1003      M_A    0.0000
   5872 H          26.6762   80.6867   24.3322 H      1003      M_A    0.0000
   5873 H          28.8900   81.7495   25.0824 H      1003      M_A    0.0000
   5874 H          28.4645   81.3524   26.7436 H      1003      M_A    0.0000
   5875 C          28.9214   79.6083   25.5111 C.3    1004      M_A    0.0000
   5876 C          30.4187   79.5574   25.8348 C.3    1004      M_A    0.0000
   5877 H          28.3736   78.9083   26.1541 H      1004      M_A    0.0000
   5878 H          28.7491   79.2866   24.4765 H      1004      M_A    0.0000
   5879 H          30.9574   80.3067   25.2417 H      1004      M_A    0.0000
   5880 H          30.5845   79.8114   26.8891 H      1004      M_A    0.0000
   5881 C          31.0401   78.1464   25.5512 C.3    1005      M_A    0.0000
   5882 C          32.5717   78.1846   25.5065 C.3    1005      M_A    0.0000
   5883 H          30.7038   77.4492   26.3286 H      1005      M_A    0.0000
   5884 H          30.6453   77.7710   24.5991 H      1005      M_A    0.0000
   5885 H          32.9171   79.2092   25.3208 H      1005      M_A    0.0000
   5886 H          32.9840   77.8844   26.4778 H      1005      M_A    0.0000
   5887 C          33.1572   77.2450   24.3967 C.3    1006      M_A    0.0000
   5888 C          34.6890   77.1986   24.4237 C.3    1006      M_A    0.0000
   5889 H          32.7479   76.2366   24.5350 H      1006      M_A    0.0000
   5890 H          32.8087   77.5948   23.4171 H      1006      M_A    0.0000
   5891 H          35.0994   78.1902   24.1958 H      1006      M_A    0.0000
   5892 H          35.0397   76.9361   25.4294 H      1006      M_A    0.0000
   5893 C          35.2702   76.1637   23.3996 C.3    1007      M_A    0.0000
   5894 C          36.8015   76.1107   23.4332 C.3    1007      M_A    0.0000
   5895 H          34.8545   75.1734   23.6233 H      1007      M_A    0.0000
   5896 H          34.9249   76.4303   22.3930 H      1007      M_A    0.0000
   5897 H          37.2193   77.0238   22.9913 H      1007      M_A    0.0000
   5898 H          37.1540   76.0734   24.4714 H      1007      M_A    0.0000
   5899 C          37.3701   74.8701   22.6617 C.3    1008      M_A    0.0000
   5900 C          38.7061   75.1752   21.9755 C.3    1008      M_A    0.0000
   5901 H          37.4910   74.0395   23.3680 H      1008      M_A    0.0000
   5902 H          36.6307   74.5466   21.9185 H      1008      M_A    0.0000
   5903 H          38.5879   76.0135   21.2778 H      1008      M_A    0.0000
   5904 H          39.4488   75.4874   22.7201 H      1008      M_A    0.0000
   5905 C          39.2665   73.9395   21.1903 C.3    1009      M_A    0.0000
   5906 C          40.6921   74.1742   20.6787 C.3    1009      M_A    0.0000
   5907 H          39.2426   73.0620   21.8482 H      1009      M_A    0.0000
   5908 H          38.5963   73.7212   20.3496 H      1009      M_A    0.0000
   5909 H          40.6646   74.5586   19.6516 H      1009      M_A    0.0000
   5910 H          41.1893   74.9389   21.2882 H      1009      M_A    0.0000
   5911 C          41.5558   72.8662   20.7057 C.3    1010      M_A    0.0000
   5912 C          41.2535   71.9459   19.5180 C.3    1010      M_A    0.0000
   5913 H          42.6173   73.1434   20.7062 H      1010      M_A    0.0000
   5914 H          41.3678   72.3377   21.6485 H      1010      M_A    0.0000
   5915 H          40.1823   71.7113   19.4870 H      1010      M_A    0.0000
   5916 H          41.4916   72.4563   18.5765 H      1010      M_A    0.0000
   5917 C          42.0628   70.6049   19.5844 C.3    1011      M_A    0.0000
   5918 C          41.1974   69.3867   19.2437 C.3    1011      M_A    0.0000
   5919 H          42.9112   70.6693   18.8918 H      1011      M_A    0.0000
   5920 H          42.4854   70.4965   20.5910 H      1011      M_A    0.0000
   5921 H          40.1358   69.6312   19.3738 H      1011      M_A    0.0000
   5922 H          41.3308   69.1135   18.1896 H      1011      M_A    0.0000
   5923 C          41.5428   68.1445   20.1353 C.3    1012      M_A    0.0000
   5924 C          40.9152   66.8528   19.6000 C.3    1012      M_A    0.0000
   5925 H          42.6335   68.0392   20.1877 H      1012      M_A    0.0000
   5926 H          41.1953   68.3358   21.1581 H      1012      M_A    0.0000
   5927 H          40.6865   66.9600   18.5324 H      1012      M_A    0.0000
   5928 H          41.6282   66.0237   19.6878 H      1012      M_A    0.0000
   5929 C          39.5999   66.4709   20.3626 C.3    1013      M_A    0.0000
   5930 C          38.7995   65.3863   19.6331 C.3    1013      M_A    0.0000
   5931 H          39.8625   66.1299   21.3717 H      1013      M_A    0.0000
   5932 H          38.9872   67.3728   20.4843 H      1013      M_A    0.0000
   5933 H          37.7302   65.6306   19.6527 H      1013      M_A    0.0000
   5934 H          39.0944   65.3474   18.5771 H      1013      M_A    0.0000
   5935 C          39.0055   63.9678   20.2679 C.3    1014      M_A    0.0000
   5936 C          38.5128   62.8436   19.3500 C.3    1014      M_A    0.0000
   5937 H          40.0710   63.8316   20.4910 H      1014      M_A    0.0000
   5938 H          38.4753   63.9295   21.2275 H      1014      M_A    0.0000
   5939 H          38.6443   61.8718   19.8417 H      1014      M_A    0.0000
   5940 H          37.4384   62.9574   19.1593 H      1014      M_A    0.0000
   5941 C          39.2701   62.8222   17.9776 C.3    1015      M_A    0.0000
   5942 C          39.6746   61.4043   17.5595 C.3    1015      M_A    0.0000
   5943 H          38.6261   63.2711   17.2113 H      1015      M_A    0.0000
   5944 H          40.1596   63.4599   18.0546 H      1015      M_A    0.0000
   5945 H          39.2018   60.6678   18.2209 H      1015      M_A    0.0000
   5946 H          39.3139   61.1940   16.5450 H      1015      M_A    0.0000
   5947 C          41.2276   61.1940   17.5973 C.3    1016      M_A    0.0000
   5948 C          41.7820   60.7160   16.2507 C.3    1016      M_A    0.0000
   5949 H          41.7054   62.1381   17.8870 H      1016      M_A    0.0000
   5950 H          41.4668   60.4660   18.3823 H      1016      M_A    0.0000
   5951 H          41.4359   61.3761   15.4457 H      1016      M_A    0.0000
   5952 H          42.8777   60.7710   16.2541 H      1016      M_A    0.0000
   5953 C          41.3510   59.2457   15.9190 C.3    1017      M_A    0.0000
   5954 C          42.2941   58.5769   14.9129 C.3    1017      M_A    0.0000
   5955 H          41.3227   58.6668   16.8504 H      1017      M_A    0.0000
   5956 H          40.3274   59.2578   15.5244 H      1017      M_A    0.0000
   5957 H          42.1947   59.0535   13.9298 H      1017      M_A    0.0000
   5958 H          43.3366   58.7145   15.2257 H      1017      M_A    0.0000
   5959 C          42.0103   57.0426   14.7617 C.3    1018      M_A    0.0000
   5960 C          43.2948   56.2075   14.8022 C.3    1018      M_A    0.0000
   5961 H          41.3315   56.7278   15.5641 H      1018      M_A    0.0000
   5962 H          41.4806   56.8725   13.8162 H      1018      M_A    0.0000
   5963 H          43.7260   56.1317   13.7963 H      1018      M_A    0.0000
   5964 H          44.0457   56.7026   15.4304 H      1018      M_A    0.0000
   5965 C          43.0465   54.7621   15.3558 C.3    1019      M_A    0.0000
   5966 C          44.3527   54.0458   15.7162 C.3    1019      M_A    0.0000
   5967 H          42.3978   54.8279   16.2381 H      1019      M_A    0.0000
   5968 H          42.4962   54.1846   14.6026 H      1019      M_A    0.0000
   5969 H          44.7178   53.4732   14.8545 H      1019      M_A    0.0000
   5970 H          45.1303   54.7807   15.9584 H      1019      M_A    0.0000
   5971 C          44.1804   53.0727   16.9331 C.3    1020      M_A    0.0000
   5972 C          45.4608   52.7326   17.5871 C.3    1020      M_A    0.0000
   5973 H          43.5502   53.5821   17.6126 H      1020      M_A    0.0000
   5974 H          43.6717   52.1896   16.6507 H      1020      M_A    0.0000
   5975 H          45.2921   52.0636   18.3885 H      1020      M_A    0.0000
   5976 H          46.0957   52.2341   16.9039 H      1020      M_A    0.0000
   5977 C          46.1766   53.9543   18.1148 C.3    1021      M_A    0.0000
   5978 C          47.5414   53.6431   18.5875 C.3    1021      M_A    0.0000
   5979 H          46.2153   54.6836   17.3500 H      1021      M_A    0.0000
   5980 H          45.6061   54.3700   18.9023 H      1021      M_A    0.0000
   5981 H          48.0265   54.5282   18.9029 H      1021      M_A    0.0000
   5982 H          47.4967   53.0047   19.4294 H      1021      M_A    0.0000
   5983 C          48.3807   52.9819   17.5188 C.3    1022      M_A    0.0000
   5984 C          49.5339   52.2519   18.0845 C.3    1022      M_A    0.0000
   5985 H          47.7687   52.3204   16.9655 H      1022      M_A    0.0000
   5986 H          48.7166   53.7224   16.8426 H      1022      M_A    0.0000
   5987 H          50.1854   52.9262   18.5736 H      1022      M_A    0.0000
   5988 H          49.2038   51.5637   18.8164 H      1022      M_A    0.0000
   5989 C          50.3119   51.5030   17.0275 C.3    1023      M_A    0.0000
   5990 C          51.7372   51.3495   17.3849 C.3    1023      M_A    0.0000
   5991 H          49.8689   50.5530   16.8872 H      1023      M_A    0.0000
   5992 H          50.2220   52.0186   16.1086 H      1023      M_A    0.0000
   5993 H          52.2215   52.2892   17.3561 H      1023      M_A    0.0000
   5994 H          51.8261   50.9923   18.3763 H      1023      M_A    0.0000
   5995 C          52.4609   50.4001   16.4584 C.3    1024      M_A    0.0000
   5996 C          53.9192   50.3894   16.6951 C.3    1024      M_A    0.0000
   5997 H          52.0652   49.4282   16.5893 H      1024      M_A    0.0000
   5998 H          52.2579   50.6785   15.4586 H      1024      M_A    0.0000
   5999 H          54.3569   51.2680   16.3015 H      1024      M_A    0.0000
   6000 H          54.1180   50.3902   17.7338 H      1024      M_A    0.0000
   6001 C          54.5919   49.1886   16.0715 C.3    1025      M_A    0.0000
   6002 C          56.0569   49.2055   16.2624 C.3    1025      M_A    0.0000
   6003 H          54.1813   48.3103   16.4938 H      1025      M_A    0.0000
   6004 H          54.3610   49.1661   15.0397 H      1025      M_A    0.0000
   6005 H          56.3736   48.3052   16.7178 H      1025      M_A    0.0000
   6006 H          56.5441   49.2595   15.3253 H      1025      M_A    0.0000
   6007 C          56.5100   50.3682   17.1147 C.3    1026      M_A    0.0000
   6008 C          57.8744   50.8173   16.7694 C.3    1026      M_A    0.0000
   6009 H          55.8250   51.1651   16.9960 H      1026      M_A    0.0000
   6010 H          56.4691   50.0815   18.1318 H      1026      M_A    0.0000
   6011 H          58.5771   50.3829   17.4296 H      1026      M_A    0.0000
   6012 H          58.1288   50.4896   15.7966 H      1026      M_A    0.0000
   6013 C          58.0148   52.3207   16.8291 C.3    1027      M_A    0.0000
   6014 C          59.2174   52.7416   17.5770 C.3    1027      M_A    0.0000
   6015 H          58.0507   52.6992   15.8422 H      1027      M_A    0.0000
   6016 H          57.1478   52.7264   17.2785 H      1027      M_A    0.0000
   6017 H          59.0771   52.5759   18.6120 H      1027      M_A    0.0000
   6018 H          60.0487   52.1564   17.2858 H      1027      M_A    0.0000
   6019 C          59.5472   54.1998   17.3574 C.3    1028      M_A    0.0000
   6020 C          60.8223   54.5876   17.9950 C.3    1028      M_A    0.0000
   6021 H          59.5902   54.3867   16.3174 H      1028      M_A    0.0000
   6022 H          58.7568   54.7894   17.7395 H      1028      M_A    0.0000
   6023 H          61.5466   54.8036   17.2553 H      1028      M_A    0.0000
   6024 H          60.6913   55.4724   18.5592 H      1028      M_A    0.0000
   6025 C          61.3608   53.5063   18.9029 C.3    1029      M_A    0.0000
   6026 C          62.7932   53.6959   19.2112 C.3    1029      M_A    0.0000
   6027 H          60.7954   53.4988   19.7966 H      1029      M_A    0.0000
   6028 H          61.2106   52.5671   18.4407 H      1029      M_A    0.0000
   6029 H          63.3794   53.4800   18.3579 H      1029      M_A    0.0000
   6030 H          62.9798   54.7067   19.4600 H      1029      M_A    0.0000
   6031 C          63.2541   52.8201   20.3531 C.3    1030      M_A    0.0000
   6032 C          64.7260   52.7082   20.4142 C.3    1030      M_A    0.0000
   6033 H          62.8828   53.2186   21.2596 H      1030      M_A    0.0000
   6034 H          62.8218   51.8613   20.2433 H      1030      M_A    0.0000
   6035 H          65.0161   52.2254   21.3092 H      1030      M_A    0.0000
   6036 H          65.0773   52.1078   19.6176 H      1030      M_A    0.0000
   6037 C          65.4062   54.0558   20.3452 C.3    1031      M_A    0.0000
   6038 C          66.8637   53.9594   20.5665 C.3    1031      M_A    0.0000
   6039 H          65.2107   54.4883   19.4001 H      1031      M_A    0.0000
   6040 H          64.9712   54.6945   21.0672 H      1031      M_A    0.0000
   6041 H          67.3170   54.9024   20.4128 H      1031      M_A    0.0000
   6042 H          67.0610   53.6874   21.5692 H      1031      M_A    0.0000
   6043 C          67.5165   52.9501   19.6507 C.3    1032      M_A    0.0000
   6044 C          68.8344   52.5091   20.1521 C.3    1032      M_A    0.0000
   6045 H          66.8718   52.1184   19.5453 H      1032      M_A    0.0000
   6046 H          67.6191   53.3785   18.6893 H      1032      M_A    0.0000
   6047 H          68.8862   52.6409   21.2001 H      1032      M_A    0.0000
   6048 H          68.9648   51.4757   19.9692 H      1032      M_A    0.0000
   6049 C          69.9740   53.2652   19.5092 C.3    1033      M_A    0.0000
   6050 C          71.2925   52.8142   20.0000 C.3    1033      M_A    0.0000
   6051 H          69.9160   53.1422   18.4605 H      1033      M_A    0.0000
   6052 H          69.8493   54.2976   19.7013 H      1033      M_A    0.0000
   6053 H          71.4724   53.2039   20.9665 H      1033      M_A    0.0000
   6054 H          71.3049   51.7606   20.0903 H      1033      M_A    0.0000
   6055 C          72.4192   53.2380   19.0865 C.3    1034      M_A    0.0000
   6056 C          73.7175   53.2972   19.7890 C.3    1034      M_A    0.0000
   6057 H          72.4754   52.5595   18.2772 H      1034      M_A    0.0000
   6058 H          72.1865   54.1837   18.6743 H      1034      M_A    0.0000
   6059 H          73.5622   53.3753   20.8321 H      1034      M_A    0.0000
   6060 H          74.2578   52.4023   19.6286 H      1034      M_A    0.0000
   6061 C          74.5624   54.4644   19.3337 C.3    1035      M_A    0.0000
   6062 C          75.5932   54.8306   20.3267 C.3    1035      M_A    0.0000
   6063 H          75.0183   54.2163   18.4123 H      1035      M_A    0.0000
   6064 H          73.9295   55.2908   19.1465 H      1035      M_A    0.0000
   6065 H          75.8932   53.9745   20.8704 H      1035      M_A    0.0000
   6066 H          76.4557   55.1963   19.8360 H      1035      M_A    0.0000
   6067 C          75.1048   55.8789   21.2993 C.3    1036      M_A    0.0000
   6068 C          75.8829   57.1317   21.2096 C.3    1036      M_A    0.0000
   6069 H          74.0830   56.0722   21.1074 H      1036      M_A    0.0000
   6070 H          75.1608   55.4867   22.2798 H      1036      M_A    0.0000
   6071 H          76.8651   56.9749   21.5688 H      1036      M_A    0.0000
   6072 H          75.9731   57.4310   20.1994 H      1036      M_A    0.0000
   6073 C          75.2503   58.2562   21.9962 C.3    1037      M_A    0.0000
   6074 C          76.0725   59.4836   21.9783 C.3    1037      M_A    0.0000
   6075 H          74.2923   58.4557   21.5954 H      1037      M_A    0.0000
   6076 H          75.1016   57.9339   22.9924 H      1037      M_A    0.0000
   6077 H          77.0979   59.2342   22.0478 H      1037      M_A    0.0000
   6078 H          75.9452   59.9920   21.0598 H      1037      M_A    0.0000
   6079 C          75.7224   60.4240   23.1082 C.3    1038      M_A    0.0000
   6080 C          76.1203   61.8175   22.8206 C.3    1038      M_A    0.0000
   6081 H          74.6807   60.3732   23.2835 H      1038      M_A    0.0000
   6082 H          76.1959   60.0867   23.9916 H      1038      M_A    0.0000
   6083 H          77.0555   62.0271   23.2676 H      1038      M_A    0.0000
   6084 H          76.2448   61.9514   21.7790 H      1038      M_A    0.0000
   6085 C          75.1053   62.8181   23.3225 C.3    1039      M_A    0.0000
   6086 C          75.4384   64.2013   22.9242 C.3    1039      M_A    0.0000
   6087 H          74.1519   62.5530   22.9494 H      1039      M_A    0.0000
   6088 H          75.0494   62.7476   24.3762 H      1039      M_A    0.0000
   6089 H          76.4836   64.3003   22.7971 H      1039      M_A    0.0000
   6090 H          74.9962   64.4262   21.9902 H      1039      M_A    0.0000
   6091 C          74.9729   65.2178   23.9409 C.3    1040      M_A    0.0000
   6092 C          74.5039   66.4680   23.3084 C.3    1040      M_A    0.0000
   6093 H          74.1972   64.7909   24.5192 H      1040      M_A    0.0000
   6094 H          75.7690   65.4242   24.6057 H      1040      M_A    0.0000
   6095 H          74.2113   67.1622   24.0505 H      1040      M_A    0.0000
   6096 H          75.2924   66.9178   22.7658 H      1040      M_A    0.0000
   6097 C          73.3400   66.2351   22.3732 C.3    1041      M_A    0.0000
   6098 C          73.0582   67.4122   21.5260 C.3    1041      M_A    0.0000
   6099 H          73.5524   65.3947   21.7673 H      1041      M_A    0.0000
   6100 H          72.4863   65.9882   22.9464 H      1041      M_A    0.0000
   6101 H          72.0149   67.5734   21.4647 H      1041      M_A    0.0000
   6102 H          73.4746   68.2809   21.9622 H      1041      M_A    0.0000
   6103 C          73.6101   67.2568   20.1278 C.3    1042      M_A    0.0000
   6104 C          73.4068   68.4687   19.3077 C.3    1042      M_A    0.0000
   6105 H          74.6413   67.0309   20.1915 H      1042      M_A    0.0000
   6106 H          73.1450   66.4257   19.6682 H      1042      M_A    0.0000
   6107 H          74.1093   69.2115   19.5780 H      1042      M_A    0.0000
   6108 H          73.5752   68.2484   18.2872 H      1042      M_A    0.0000
   6109 C          72.0147   69.0365   19.4601 C.3    1043      M_A    0.0000
   6110 C          71.9927   70.5080   19.3296 C.3    1043      M_A    0.0000
   6111 H          71.3862   68.5984   18.7312 H      1043      M_A    0.0000
   6112 H          71.6313   68.7504   20.4033 H      1043      M_A    0.0000
   6113 H          72.5327   70.9506   20.1238 H      1043      M_A    0.0000
   6114 H          72.4749   70.7998   18.4348 H      1043      M_A    0.0000
   6115 C          70.5868   71.0619   19.3283 C.3    1044      M_A    0.0000
   6116 C          70.5612   72.5250   19.5316 C.3    1044      M_A    0.0000
   6117 H          70.1241   70.8153   18.4099 H      1044      M_A    0.0000
   6118 H          70.0300   70.5805   20.0877 H      1044      M_A    0.0000
   6119 H          69.5722   72.8872   19.4361 H      1044      M_A    0.0000
   6120 H          70.8773   72.7603   20.5130 H      1044      M_A    0.0000
   6121 C          71.4446   73.2556   18.5470 C.3    1045      M_A    0.0000
   6122 C          71.1169   74.6936   18.4606 C.3    1045      M_A    0.0000
   6123 H          72.4540   73.1304   18.8367 H      1045      M_A    0.0000
   6124 H          71.3431   72.8028   17.5968 H      1045      M_A    0.0000
   6125 H          70.2200   74.8291   17.9170 H      1045      M_A    0.0000
   6126 H          70.9478   75.0857   19.4281 H      1045      M_A    0.0000
   6127 C          72.2145   75.4922   17.7964 C.3    1046      M_A    0.0000
   6128 C          71.7664   76.8459   17.4097 C.3    1046      M_A    0.0000
   6129 H          73.0367   75.5576   18.4582 H      1046      M_A    0.0000
   6130 H          72.5518   74.9647   16.9441 H      1046      M_A    0.0000
   6131 H          72.0230   77.0388   16.4021 H      1046      M_A    0.0000
   6132 H          70.7127   76.9108   17.4726 H      1046      M_A    0.0000
   6133 C          72.3735   77.9208   18.2813 C.3    1047      M_A    0.0000
   6134 C          71.6887   79.2207   18.1259 C.3    1047      M_A    0.0000
   6135 H          72.3302   77.6065   19.2901 H      1047      M_A    0.0000
   6136 H          73.3978   78.0191   18.0375 H      1047      M_A    0.0000
   6137 H          72.1321   79.7724   17.3402 H      1047      M_A    0.0000
   6138 H          70.6775   79.0680   17.8568 H      1047      M_A    0.0000
   6139 C          71.7368   80.0480   19.3895 C.3    1048      M_A    0.0000
   6140 C          71.5581   81.4900   19.1219 C.3    1048      M_A    0.0000
   6141 H          70.9849   79.7058   20.0498 H      1048      M_A    0.0000
   6142 H          72.6632   79.8807   19.8714 H      1048      M_A    0.0000
   6143 H          72.1038   81.7691   18.2601 H      1048      M_A    0.0000
   6144 H          70.5414   81.6976   18.9181 H      1048      M_A    0.0000
   6145 C          72.0075   82.3477   20.2820 C.3    1049      M_A    0.0000
   6146 C          71.7999   81.6816   21.5843 C.3    1049      M_A    0.0000
   6147 H          73.0303   82.5845   20.1547 H      1049      M_A    0.0000
   6148 H          71.4782   83.2629   20.2543 H      1049      M_A    0.0000
   6149 H          71.4312   80.7017   21.4356 H      1049      M_A    0.0000
   6150 H          72.7218   81.5853   22.0933 H      1049      M_A    0.0000
   6151 C          70.8331   82.4371   22.4663 C.3    1050      M_A    0.0000
   6152 C          69.9934   81.5334   23.2793 C.3    1050      M_A    0.0000
   6153 H          71.3817   83.0863   23.0956 H      1050      M_A    0.0000
   6154 H          70.2226   83.0490   21.8570 H      1050      M_A    0.0000
   6155 H          69.5827   82.0600   24.0993 H      1050      M_A    0.0000
   6156 H          69.1780   81.1816   22.7051 H      1050      M_A    0.0000
   6157 C          70.7692   80.3465   23.8019 C.3    1051      M_A    0.0000
   6158 C          71.0197   80.4372   25.2551 C.3    1051      M_A    0.0000
   6159 H          70.2308   79.4635   23.5812 H      1051      M_A    0.0000
   6160 H          71.6862   80.2818   23.2792 H      1051      M_A    0.0000
   6161 H          70.1022   80.4640   25.7803 H      1051      M_A    0.0000
   6162 H          71.5355   79.5763   25.5886 H      1051      M_A    0.0000
   6163 C          71.8267   81.6611   25.6219 C.3    1052      M_A    0.0000
   6164 C          72.9953   81.3298   26.4629 C.3    1052      M_A    0.0000
   6165 H          72.1432   82.1395   24.7334 H      1052      M_A    0.0000
   6166 H          71.1982   82.3448   26.1276 H      1052      M_A    0.0000
   6167 H          73.0789   82.0232   27.2570 H      1052      M_A    0.0000
   6168 H          72.8665   80.3772   26.9038 H      1052      M_A    0.0000
   6169 C          74.2858   81.3320   25.6766 C.3    1053      M_A    0.0000
   6170 C          74.4246   80.1327   24.8249 C.3    1053      M_A    0.0000
   6171 H          74.3208   82.2054   25.0814 H      1053      M_A    0.0000
   6172 H          75.0968   81.3925   26.3526 H      1053      M_A    0.0000
   6173 H          74.5578   79.2737   25.4272 H      1053      M_A    0.0000
   6174 H          73.5387   79.9788   24.2682 H      1053      M_A    0.0000
   6175 C          75.5887   80.2417   23.8676 C.3    1054      M_A    0.0000
   6176 C          75.5561   79.1955   22.8250 C.3    1054      M_A    0.0000
   6177 H          75.5737   81.1999   23.4204 H      1054      M_A    0.0000
   6178 H          76.4896   80.1774   24.4178 H      1054      M_A    0.0000
   6179 H          76.1407   78.3667   23.1245 H      1054      M_A    0.0000
   6180 H          74.5681   78.8403   22.6984 H      1054      M_A    0.0000
   6181 C          76.0677   79.6968   21.4944 C.3    1055      M_A    0.0000
   6182 C          75.1003   80.5889   20.8227 C.3    1055      M_A    0.0000
   6183 H          76.9819   80.2051   21.6503 H      1055      M_A    0.0000
   6184 H          76.2837   78.8657   20.8772 H      1055      M_A    0.0000
   6185 H          74.1353   80.4518   21.2330 H      1055      M_A    0.0000
   6186 H          75.3613   81.5997   20.9915 H      1055      M_A    0.0000
   6187 C          75.0352   80.3449   19.3328 C.3    1056      M_A    0.0000
   6188 C          75.6078   81.4641   18.5566 C.3    1056      M_A    0.0000
   6189 H          75.5510   79.4487   19.1113 H      1056      M_A    0.0000
   6190 H          74.0261   80.1908   19.0564 H      1056      M_A    0.0000
   6191 H          74.8698   82.2019   18.3858 H      1056      M_A    0.0000
   6192 H          76.3808   81.9297   19.1081 H      1056      M_A    0.0000
   6193 C          76.1628   81.0129   17.2255 C.3    1057      M_A    0.0000
   6194 C          75.6272   81.8040   16.0985 C.3    1057      M_A    0.0000
   6195 H          77.2173   81.0884   17.2526 H      1057      M_A    0.0000
   6196 H          75.9350   79.9891   17.0905 H      1057      M_A    0.0000
   6197 H          75.8560   82.8276   16.2329 H      1057      M_A    0.0000
   6198 H          76.0883   81.5059   15.1947 H      1057      M_A    0.0000
   6199 C          74.1304   81.6543   15.9540 C.3    1058      M_A    0.0000
   6200 C          73.5366   82.7307   15.1346 C.3    1058      M_A    0.0000
   6201 H          73.9223   80.7121   15.5211 H      1058      M_A    0.0000
   6202 H          73.6939   81.6489   16.9172 H      1058      M_A    0.0000
   6203 H          74.2809   83.1818   14.5339 H      1058      M_A    0.0000
   6204 H          72.8160   82.3277   14.4737 H      1058      M_A    0.0000
   6205 C          72.8798   83.7976   15.9795 C.3    1059      M_A    0.0000
   6206 C          71.4643   84.0094   15.6131 C.3    1059      M_A    0.0000
   6207 H          72.9532   83.5196   16.9972 H      1059      M_A    0.0000
   6208 H          73.4213   84.6995   15.8712 H      1059      M_A    0.0000
   6209 H          71.3321   83.8590   14.5747 H      1059      M_A    0.0000
   6210 H          70.8527   83.2994   16.1031 H      1059      M_A    0.0000
   6211 C          70.9818   85.3964   15.9696 C.3    1060      M_A    0.0000
   6212 C          70.1515   85.4036   17.1916 C.3    1060      M_A    0.0000
   6213 H          71.8212   86.0268   16.0978 H      1060      M_A    0.0000
   6214 H          70.4314   85.7857   15.1548 H      1060      M_A    0.0000
   6215 H          69.1377   85.2355   16.9421 H      1060      M_A    0.0000
   6216 H          70.4417   84.6135   17.8318 H      1060      M_A    0.0000
   6217 C          70.2572   86.7074   17.9482 C.3    1061      M_A    0.0000
   6218 C          69.1772   86.8661   18.9438 C.3    1061      M_A    0.0000
   6219 H          71.1998   86.7488   18.4259 H      1061      M_A    0.0000
   6220 H          70.2324   87.5063   17.2557 H      1061      M_A    0.0000
   6221 H          68.7599   85.9234   19.1795 H      1061      M_A    0.0000
   6222 H          69.5690   87.2586   19.8443 H      1061      M_A    0.0000
   6223 C          68.0760   87.7775   18.4537 C.3    1062      M_A    0.0000
   6224 C          67.3733   88.4537   19.5636 C.3    1062      M_A    0.0000
   6225 H          68.4935   88.4948   17.7983 H      1062      M_A    0.0000
   6226 H          67.3906   87.2081   17.8840 H      1062      M_A    0.0000
   6227 H          67.0372   87.7402   20.2681 H      1062      M_A    0.0000
   6228 H          68.0387   89.0963   20.0760 H      1062      M_A    0.0000
   6229 C          66.1889   89.2606   19.0845 C.3    1063      M_A    0.0000
   6230 C          65.5186   89.9800   20.1872 C.3    1063      M_A    0.0000
   6231 H          66.5186   89.9474   18.3510 H      1063      M_A    0.0000
   6232 H          65.5048   88.6110   18.6066 H      1063      M_A    0.0000
   6233 H          66.0869   90.8272   20.4657 H      1063      M_A    0.0000
   6234 H          64.5766   90.3382   19.8668 H      1063      M_A    0.0000
   6235 C          65.3193   89.1059   21.4036 C.3    1064      M_A    0.0000
   6236 C          65.1867   89.8958   22.6451 C.3    1064      M_A    0.0000
   6237 H          64.4569   88.5112   21.2584 H      1064      M_A    0.0000
   6238 H          66.1373   88.4404   21.4829 H      1064      M_A    0.0000
   6239 H          65.2155   89.2561   23.4867 H      1064      M_A    0.0000
   6240 H          66.0036   90.5606   22.7408 H      1064      M_A    0.0000
   6241 C          63.9033   90.6926   22.6827 C.3    1065      M_A    0.0000
   6242 C          63.5646   91.1446   24.0478 C.3    1065      M_A    0.0000
   6243 H          64.0002   91.5256   22.0385 H      1065      M_A    0.0000
   6244 H          63.1209   90.0971   22.2933 H      1065      M_A    0.0000
   6245 H          64.4363   91.4747   24.5472 H      1065      M_A    0.0000
   6246 H          62.9082   91.9725   24.0033 H      1065      M_A    0.0000
   6247 C          62.9170   90.0532   24.8683 C.3    1066      M_A    0.0000
   6248 C          61.5720   90.4350   25.3458 C.2    1066      M_A    0.0000
   6249 H          62.8579   89.1753   24.2817 H      1066      M_A    0.0000
   6250 H          63.5431   89.8277   25.6902 H      1066      M_A    0.0000
   6251 H          61.6311   91.3129   25.9324 H      1066      M_A    0.0000
   6252 H          60.9459   90.6606   24.5239 H      1066      M_A    0.0000
   6253 C          22.6990   57.0941   22.7405 C.2    1067      M_A    0.0000
   6254 C          22.1421   58.3463   23.2459 C.3    1067      M_A    0.0000
   6255 H          23.2290   56.6059   23.4981 H      1067      M_A    0.0000
   6256 H          23.3826   57.2893   21.9738 H      1067      M_A    0.0000
   6257 H          21.6043   58.8300   22.4908 H      1067      M_A    0.0000
   6258 H          21.4654   58.1516   24.0188 H      1067      M_A    0.0000
   6259 C          23.1992   59.2722   23.7531 C.3    1068      M_A    0.0000
   6260 C          24.5403   58.7102   23.6147 C.3    1068      M_A    0.0000
   6261 H          23.1337   60.1762   23.2318 H      1068      M_A    0.0000
   6262 H          23.0034   59.4896   24.7568 H      1068      M_A    0.0000
   6263 H          24.6795   57.9400   24.3079 H      1068      M_A    0.0000
   6264 H          24.6547   58.2850   22.6664 H      1068      M_A    0.0000
   6265 C          25.6076   59.7364   23.8142 C.3    1069      M_A    0.0000
   6266 C          26.9489   59.1697   23.6986 C.3    1069      M_A    0.0000
   6267 H          25.4784   60.4983   23.1101 H      1069      M_A    0.0000
   6268 H          25.4830   60.1735   24.7558 H      1069      M_A    0.0000
   6269 H          27.0748   58.4012   24.3963 H      1069      M_A    0.0000
   6270 H          27.0768   58.7411   22.7536 H      1069      M_A    0.0000
   6271 C          28.0163   60.1932   23.9117 C.3    1070      M_A    0.0000
   6272 C          29.3574   59.6314   23.7729 C.3    1070      M_A    0.0000
   6273 H          27.8801   60.9699   23.2252 H      1070      M_A    0.0000
   6274 H          27.8987   60.6096   24.8635 H      1070      M_A    0.0000
   6275 H          29.8695   60.1129   22.9989 H      1070      M_A    0.0000
   6276 H          29.9079   59.7978   24.6461 H      1070      M_A    0.0000
   6277 C          29.3306   58.1641   23.4928 C.3    1071      M_A    0.0000
   6278 C          30.6703   57.6098   23.3156 C.3    1071      M_A    0.0000
   6279 H          28.8434   57.6795   24.2808 H      1071      M_A    0.0000
   6280 H          28.7564   57.9952   22.6355 H      1071      M_A    0.0000
   6281 H          31.1639   58.1062   22.5390 H      1071      M_A    0.0000
   6282 H          31.2390   57.7634   24.1794 H      1071      M_A    0.0000
   6283 C          30.6422   56.1473   23.0113 C.3    1072      M_A    0.0000
   6284 C          31.9790   55.5586   22.9994 C.3    1072      M_A    0.0000
   6285 H          30.0451   55.6666   23.7223 H      1072      M_A    0.0000
   6286 H          30.1794   56.0047   22.0847 H      1072      M_A    0.0000
   6287 H          32.0880   54.9335   22.1684 H      1072      M_A    0.0000
   6288 H          32.7006   56.3095   22.9069 H      1072      M_A    0.0000
   6289 C          32.2611   54.7693   24.2361 C.3    1073      M_A    0.0000
   6290 C          33.5570   55.1025   24.8219 C.3    1073      M_A    0.0000
   6291 H          31.4984   54.9450   24.9294 H      1073      M_A    0.0000
   6292 H          32.2249   53.7510   24.0016 H      1073      M_A    0.0000
   6293 H          33.5991   56.1238   25.0417 H      1073      M_A    0.0000
   6294 H          33.6822   54.5952   25.7275 H      1073      M_A    0.0000
   6295 C          34.6936   54.7577   23.9156 C.3    1074      M_A    0.0000
   6296 C          35.9700   55.2676   24.4099 C.3    1074      M_A    0.0000
   6297 H          34.7386   53.7183   23.8121 H      1074      M_A    0.0000
   6298 H          34.4963   55.1459   22.9651 H      1074      M_A    0.0000
   6299 H          36.7548   54.6761   24.0529 H      1074      M_A    0.0000
   6300 H          36.1342   56.2346   24.0478 H      1074      M_A    0.0000
   6301 C          36.0287   55.2958   25.9024 C.3    1075      M_A    0.0000
   6302 C          37.3989   55.3837   26.4010 C.3    1075      M_A    0.0000
   6303 H          35.4692   56.1093   26.2464 H      1075      M_A    0.0000
   6304 H          35.5665   54.4349   26.2742 H      1075      M_A    0.0000
   6305 H          37.7939   54.4249   26.5347 H      1075      M_A    0.0000
   6306 H          38.0062   55.8632   25.6978 H      1075      M_A    0.0000
   6307 C          37.4840   56.1245   27.6956 C.3    1076      M_A    0.0000
   6308 C          37.8958   55.2625   28.8006 C.3    1076      M_A    0.0000
   6309 H          38.1588   56.9157   27.5874 H      1076      M_A    0.0000
   6310 H          36.5518   56.5509   27.9018 H      1076      M_A    0.0000
   6311 H          37.5845   55.6727   29.7105 H      1076      M_A    0.0000
   6312 H          37.4332   54.3285   28.7183 H      1076      M_A    0.0000
   6313 C          39.3761   55.0646   28.8429 C.3    1077      M_A    0.0000
   6314 C          40.0290   55.9707   29.7845 C.3    1077      M_A    0.0000
   6315 H          39.5761   54.0720   29.1033 H      1077      M_A    0.0000
   6316 H          39.7627   55.2067   27.8819 H      1077      M_A    0.0000
   6317 H          39.5287   56.8885   29.8043 H      1077      M_A    0.0000
   6318 H          39.9774   55.5796   30.7527 H      1077      M_A    0.0000
   6319 C          41.4622   56.2108   29.4379 C.3    1078      M_A    0.0000
   6320 C          42.0379   57.3170   30.1986 C.3    1078      M_A    0.0000
   6321 H          42.0033   55.3339   29.6151 H      1078      M_A    0.0000
   6322 H          41.5331   56.4054   28.4130 H      1078      M_A    0.0000
   6323 H          42.0479   57.0842   31.2178 H      1078      M_A    0.0000
   6324 H          43.0330   57.4674   29.9152 H      1078      M_A    0.0000
   6325 C          41.2836   58.5917   30.0031 C.3    1079      M_A    0.0000
   6326 C          41.8885   59.7090   30.7236 C.3    1079      M_A    0.0000
   6327 H          41.2418   58.8051   28.9804 H      1079      M_A    0.0000
   6328 H          40.2974   58.4519   30.3211 H      1079      M_A    0.0000
   6329 H          41.1687   60.1886   31.3110 H      1079      M_A    0.0000
   6330 H          42.6243   59.3574   31.3779 H      1079      M_A    0.0000
   6331 C          42.5031   60.7111   29.8015 C.3    1080      M_A    0.0000
   6332 C          42.1593   62.0830   30.1663 C.3    1080      M_A    0.0000
   6333 H          43.5412   60.5867   29.8122 H      1080      M_A    0.0000
   6334 H          42.1867   60.5096   28.8256 H      1080      M_A    0.0000
   6335 H          41.2192   62.3313   29.7820 H      1080      M_A    0.0000
   6336 H          42.0916   62.1713   31.2059 H      1080      M_A    0.0000
   6337 C          43.1613   63.0706   29.6635 C.3    1081      M_A    0.0000
   6338 C          42.8823   64.4273   30.1275 C.3    1081      M_A    0.0000
   6339 H          44.1136   62.7735   29.9763 H      1081      M_A    0.0000
   6340 H          43.1664   63.0431   28.6184 H      1081      M_A    0.0000
   6341 H          41.8817   64.5076   30.4197 H      1081      M_A    0.0000
   6342 H          43.4599   64.6433   30.9718 H      1081      M_A    0.0000
   6343 C          43.1612   65.4532   29.0779 C.3    1082      M_A    0.0000
   6344 C          44.0287   66.5224   29.5655 C.3    1082      M_A    0.0000
   6345 H          43.6010   64.9821   28.2546 H      1082      M_A    0.0000
   6346 H          42.2532   65.8515   28.7462 H      1082      M_A    0.0000
   6347 H          43.4925   67.1583   30.1990 H      1082      M_A    0.0000
   6348 H          44.8086   66.1201   30.1340 H      1082      M_A    0.0000
   6349 C          44.6114   67.3309   28.4524 C.3    1083      M_A    0.0000
   6350 C          44.3868   68.7629   28.6320 C.3    1083      M_A    0.0000
   6351 H          45.6364   67.1334   28.3933 H      1083      M_A    0.0000
   6352 H          44.1917   67.0126   27.5493 H      1083      M_A    0.0000
   6353 H          44.6482   69.2788   27.7609 H      1083      M_A    0.0000
   6354 H          43.3713   68.9486   28.7976 H      1083      M_A    0.0000
   6355 C          45.1709   69.3201   29.7752 C.3    1084      M_A    0.0000
   6356 C          45.9226   70.5152   29.4006 C.3    1084      M_A    0.0000
   6357 H          44.5143   69.5404   30.5585 H      1084      M_A    0.0000
   6358 H          45.8225   68.5826   30.1281 H      1084      M_A    0.0000
   6359 H          46.8082   70.2442   28.9153 H      1084      M_A    0.0000
   6360 H          45.3710   71.0875   28.7214 H      1084      M_A    0.0000
   6361 C          46.2615   71.3644   30.5821 C.3    1085      M_A    0.0000
   6362 C          46.9495   72.5950   30.2003 C.3    1085      M_A    0.0000
   6363 H          45.3807   71.5913   31.0978 H      1085      M_A    0.0000
   6364 H          46.8579   70.8085   31.2367 H      1085      M_A    0.0000
   6365 H          47.4375   72.4637   29.2849 H      1085      M_A    0.0000
   6366 H          46.2563   73.3656   30.0632 H      1085      M_A    0.0000
   6367 C          47.9509   73.0244   31.2225 C.3    1086      M_A    0.0000
   6368 C          48.9675   73.9116   30.6630 C.3    1086      M_A    0.0000
   6369 H          47.4494   73.5025   32.0055 H      1086      M_A    0.0000
   6370 H          48.4023   72.1739   31.6301 H      1086      M_A    0.0000
   6371 H          49.6732   73.3558   30.1281 H      1086      M_A    0.0000
   6372 H          48.5299   74.5748   29.9835 H      1086      M_A    0.0000
   6373 C          49.6740   74.6994   31.7177 C.3    1087      M_A    0.0000
   6374 C          50.4375   75.8123   31.1592 C.3    1087      M_A    0.0000
   6375 H          48.9680   75.0563   32.4014 H      1087      M_A    0.0000
   6376 H          50.3086   74.0596   32.2479 H      1087      M_A    0.0000
   6377 H          50.6242   75.6453   30.1441 H      1087      M_A    0.0000
   6378 H          49.8812   76.6954   31.2209 H      1087      M_A    0.0000
   6379 C          51.7406   76.0140   31.8616 C.3    1088      M_A    0.0000
   6380 C          51.7862   77.2785   32.5914 C.3    1088      M_A    0.0000
   6381 H          51.8967   75.2153   32.5181 H      1088      M_A    0.0000
   6382 H          52.5122   75.9787   31.1570 H      1088      M_A    0.0000
   6383 H          52.2136   78.0222   31.9937 H      1088      M_A    0.0000
   6384 H          50.8164   77.5964   32.8186 H      1088      M_A    0.0000
   6385 C          52.5677   77.1720   33.8602 C.3    1089      M_A    0.0000
   6386 C          52.9672   78.4791   34.3756 C.3    1089      M_A    0.0000
   6387 H          51.9897   76.6679   34.5708 H      1089      M_A    0.0000
   6388 H          53.4129   76.5814   33.6869 H      1089      M_A    0.0000
   6389 H          53.2804   79.0938   33.5900 H      1089      M_A    0.0000
   6390 H          52.1492   78.9542   34.8209 H      1089      M_A    0.0000
   6391 C          54.0705   78.3793   35.3781 C.3    1090      M_A    0.0000
   6392 C          54.4452   79.6828   35.9204 C.3    1090      M_A    0.0000
   6393 H          53.7673   77.7434   36.1507 H      1090      M_A    0.0000
   6394 H          54.8977   77.9282   34.9251 H      1090      M_A    0.0000
   6395 H          54.1295   80.4434   35.2761 H      1090      M_A    0.0000
   6396 H          53.9624   79.8434   36.8338 H      1090      M_A    0.0000
   6397 C          55.9197   79.8076   36.1266 C.3    1091      M_A    0.0000
   6398 C          56.2750   81.0167   36.8652 C.3    1091      M_A    0.0000
   6399 H          56.2612   78.9619   36.6377 H      1091      M_A    0.0000
   6400 H          56.3918   79.8057   35.1937 H      1091      M_A    0.0000
   6401 H          55.6543   81.1223   37.6999 H      1091      M_A    0.0000
   6402 H          57.2534   80.9418   37.2261 H      1091      M_A    0.0000
   6403 C          56.1647   82.2468   36.0244 C.3    1092      M_A    0.0000
   6404 C          56.3709   83.4675   36.7996 C.3    1092      M_A    0.0000
   6405 H          56.8660   82.1904   35.2511 H      1092      M_A    0.0000
   6406 H          55.2214   82.2634   35.5737 H      1092      M_A    0.0000
   6407 H          57.0428   84.0973   36.3046 H      1092      M_A    0.0000
   6408 H          55.4719   83.9946   36.8842 H      1092      M_A    0.0000
   6409 C          56.8949   83.1861   38.1702 C.3    1093      M_A    0.0000
   6410 C          56.5495   84.2390   39.1218 C.3    1093      M_A    0.0000
   6411 H          56.5123   82.2691   38.4956 H      1093      M_A    0.0000
   6412 H          57.9334   83.0766   38.1180 H      1093      M_A    0.0000
   6413 H          57.2586   85.0062   39.0806 H      1093      M_A    0.0000
   6414 H          55.6300   84.6658   38.8661 H      1093      M_A    0.0000
   6415 C          56.4710   83.7308   40.5246 C.3    1094      M_A    0.0000
   6416 C          57.5953   84.1820   41.3406 C.3    1094      M_A    0.0000
   6417 H          55.5698   84.0493   40.9484 H      1094      M_A    0.0000
   6418 H          56.4401   82.6860   40.5033 H      1094      M_A    0.0000
   6419 H          57.5532   85.2190   41.4669 H      1094      M_A    0.0000
   6420 H          57.5371   83.7606   42.2956 H      1094      M_A    0.0000
   6421 C          58.9137   83.8238   40.7357 C.3    1095      M_A    0.0000
   6422 C          59.7176   82.9826   41.6188 C.3    1095      M_A    0.0000
   6423 H          58.7457   83.3329   39.8280 H      1095      M_A    0.0000
   6424 H          59.4311   84.7038   40.5099 H      1095      M_A    0.0000
   6425 H          60.3996   83.5702   42.1506 H      1095      M_A    0.0000
   6426 H          59.1048   82.5184   42.3274 H      1095      M_A    0.0000
   6427 C          60.4693   81.9312   40.8695 C.3    1096      M_A    0.0000
   6428 C          61.8024   82.3791   40.4747 C.2    1096      M_A    0.0000
   6429 H          60.5408   81.0769   41.4680 H      1096      M_A    0.0000
   6430 H          59.9172   81.6601   40.0240 H      1096      M_A    0.0000
   6431 H          61.7309   83.2334   39.8762 H      1096      M_A    0.0000
   6432 H          62.3545   82.6501   41.3202 H      1096      M_A    0.0000
   6433 C          85.2107   80.2952   10.1608 C.2    1097      M_A    0.0000
   6434 C          85.3260   79.7240   11.4792 C.3    1097      M_A    0.0000
   6435 H          84.9605   79.5628    9.4786 H      1097      M_A    0.0000
   6436 H          86.1196   80.6809    9.8616 H      1097      M_A    0.0000
   6437 H          84.9813   80.3922   12.1856 H      1097      M_A    0.0000
   6438 H          84.7336   78.8826   11.5532 H      1097      M_A    0.0000
   6439 C          86.7153   79.3576   11.8097 C.3    1098      M_A    0.0000
   6440 C          87.2331   78.3348   10.9359 C.3    1098      M_A    0.0000
   6441 H          87.3045   80.2026   11.7532 H      1098      M_A    0.0000
   6442 H          86.7504   79.0368   12.7896 H      1098      M_A    0.0000
   6443 H          86.8847   78.4801    9.9757 H      1098      M_A    0.0000
   6444 H          88.2620   78.3961   10.8902 H      1098      M_A    0.0000
   6445 C          86.8570   76.9795   11.3778 C.3    1099      M_A    0.0000
   6446 C          87.4821   75.9525   10.5827 C.3    1099      M_A    0.0000
   6447 H          87.1196   76.8682   12.3694 H      1099      M_A    0.0000
   6448 H          85.8304   76.8873   11.3311 H      1099      M_A    0.0000
   6449 H          87.2046   76.0525    9.5941 H      1099      M_A    0.0000
   6450 H          88.5081   76.0561   10.6143 H      1099      M_A    0.0000
   6451 C          87.1270   74.5971   11.0413 C.3    1100      M_A    0.0000
   6452 C          87.6623   73.5717   10.1812 C.3    1100      M_A    0.0000
   6453 H          87.4762   74.4695   12.0037 H      1100      M_A    0.0000
   6454 H          86.0992   74.5200   11.0864 H      1100      M_A    0.0000
   6455 H          87.7282   73.9212    9.2127 H      1100      M_A    0.0000
   6456 H          88.6212   73.3290   10.4745 H      1100      M_A    0.0000
   6457 C          86.8388   72.3489   10.1902 C.3    1101      M_A    0.0000
   6458 C          87.6254   71.1622   10.4153 C.3    1101      M_A    0.0000
   6459 H          86.1173   72.4392   10.9222 H      1101      M_A    0.0000
   6460 H          86.3401   72.2772    9.2899 H      1101      M_A    0.0000
   6461 H          88.3133   71.0444    9.6554 H      1101      M_A    0.0000
   6462 H          88.1638   71.2554   11.2905 H      1101      M_A    0.0000
   6463 C          86.7938   69.9476   10.4960 C.3    1102      M_A    0.0000
   6464 C          87.5746   68.7420   10.3760 C.3    1102      M_A    0.0000
   6465 H          86.2852   69.9518   11.3937 H      1102      M_A    0.0000
   6466 H          86.0806   69.9828    9.7513 H      1102      M_A    0.0000
   6467 H          88.4374   68.9309    9.8428 H      1102      M_A    0.0000
   6468 H          87.8687   68.4165   11.3099 H      1102      M_A    0.0000
   6469 C          86.8306   67.6587    9.7078 C.3    1103      M_A    0.0000
   6470 C          85.8104   67.0934   10.5548 C.3    1103      M_A    0.0000
   6471 H          86.4071   68.0301    8.8435 H      1103      M_A    0.0000
   6472 H          87.4974   66.9258    9.4199 H      1103      M_A    0.0000
   6473 H          86.2447   66.5761   11.3346 H      1103      M_A    0.0000
   6474 H          85.2444   67.8456   10.9770 H      1103      M_A    0.0000
   6475 C          84.9157   66.1813    9.8192 C.3    1104      M_A    0.0000
   6476 C          83.6027   66.1102   10.4096 C.3    1104      M_A    0.0000
   6477 H          84.8467   66.5007    8.8406 H      1104      M_A    0.0000
   6478 H          85.3441   65.2430    9.7951 H      1104      M_A    0.0000
   6479 H          83.4362   66.9379   11.0026 H      1104      M_A    0.0000
   6480 H          82.8818   66.1245    9.6717 H      1104      M_A    0.0000
   6481 C          83.4224   64.8963   11.2265 C.3    1105      M_A    0.0000
   6482 C          82.0351   64.6343   11.5169 C.3    1105      M_A    0.0000
   6483 H          83.8367   64.0945   10.7266 H      1105      M_A    0.0000
   6484 H          83.9534   65.0044   12.1045 H      1105      M_A    0.0000
   6485 H          81.6578   65.3702   12.1339 H      1105      M_A    0.0000
   6486 H          81.4801   64.6631   10.6477 H      1105      M_A    0.0000
   6487 C          81.8374   63.3243   12.1638 C.3    1106      M_A    0.0000
   6488 C          80.5748   62.7255   11.8102 C.3    1106      M_A    0.0000
   6489 H          82.6130   62.6998   11.8939 H      1106      M_A    0.0000
   6490 H          81.8971   63.4461   13.1866 H      1106      M_A    0.0000
   6491 H          79.8180   63.1329   12.3810 H      1106      M_A    0.0000
   6492 H          80.3481   62.9335   10.8255 H      1106      M_A    0.0000
   6493 C          80.5777   61.2634   11.9986 C.3    1107      M_A    0.0000
   6494 C          79.2457   60.7251   12.1161 C.3    1107      M_A    0.0000
   6495 H          81.0668   60.8264   11.2022 H      1107      M_A    0.0000
   6496 H          81.1261   61.0379   12.8430 H      1107      M_A    0.0000
   6497 H          78.7005   61.2756   12.7974 H      1107      M_A    0.0000
   6498 H          78.7530   60.7999   11.2127 H      1107      M_A    0.0000
   6499 C          79.2491   59.3131   12.5400 C.3    1108      M_A    0.0000
   6500 C          78.9931   58.4130   11.4437 C.3    1108      M_A    0.0000
   6501 H          80.1619   59.0970   12.9695 H      1108      M_A    0.0000
   6502 H          78.5376   59.1852   13.2762 H      1108      M_A    0.0000
   6503 H          79.0841   57.4352   11.7601 H      1108      M_A    0.0000
   6504 H          78.0233   58.5276   11.1109 H      1108      M_A    0.0000
   6505 C          79.9128   58.6341   10.3129 C.3    1109      M_A    0.0000
   6506 C          80.8755   57.5701   10.1757 C.3    1109      M_A    0.0000
   6507 H          79.3594   58.7242    9.4468 H      1109      M_A    0.0000
   6508 H          80.3977   59.5344   10.4497 H      1109      M_A    0.0000
   6509 H          80.4277   56.7394    9.7588 H      1109      M_A    0.0000
   6510 H          81.6288   57.8556    9.5310 H      1109      M_A    0.0000
   6511 C          81.4749   57.1889   11.4675 C.3    1110      M_A    0.0000
   6512 C          82.8081   56.6621   11.3170 C.3    1110      M_A    0.0000
   6513 H          81.4888   58.0156   12.0846 H      1110      M_A    0.0000
   6514 H          80.8675   56.4898   11.9225 H      1110      M_A    0.0000
   6515 H          82.9043   56.1999   10.3996 H      1110      M_A    0.0000
   6516 H          83.4962   57.4305   11.3352 H      1110      M_A    0.0000
   6517 C          83.1489   55.6936   12.3750 C.3    1111      M_A    0.0000
   6518 C          84.1058   56.2241   13.3135 C.3    1111      M_A    0.0000
   6519 H          82.2843   55.4209   12.8674 H      1111      M_A    0.0000
   6520 H          83.5218   54.8381   11.9351 H      1111      M_A    0.0000
   6521 H          84.7561   56.8642   12.8320 H      1111      M_A    0.0000
   6522 H          83.6222   56.7807   14.0352 H      1111      M_A    0.0000
   6523 C          84.8864   55.1631   13.9755 C.3    1112      M_A    0.0000
   6524 C          84.4996   54.9781   15.3516 C.3    1112      M_A    0.0000
   6525 H          84.7623   54.2829   13.4517 H      1112      M_A    0.0000
   6526 H          85.8883   55.4028   13.9188 H      1112      M_A    0.0000
   6527 H          84.8156   55.7799   15.9188 H      1112      M_A    0.0000
   6528 H          83.4712   54.9475   15.4290 H      1112      M_A    0.0000
   6529 C          85.0564   53.7402   15.9270 C.3    1113      M_A    0.0000
   6530 C          86.1193   54.0034   16.8644 C.3    1113      M_A    0.0000
   6531 H          84.2970   53.2181   16.3907 H      1113      M_A    0.0000
   6532 H          85.4013   53.1427   15.1598 H      1113      M_A    0.0000
   6533 H          86.5085   54.9451   16.7026 H      1113      M_A    0.0000
   6534 H          85.7508   53.9966   17.8280 H      1113      M_A    0.0000
   6535 C          87.2090   53.0154   16.7653 C.3    1114      M_A    0.0000
   6536 C          86.9932   51.8764   17.6219 C.3    1114      M_A    0.0000
   6537 H          87.2920   52.7091   15.7836 H      1114      M_A    0.0000
   6538 H          88.0993   53.4768   17.0079 H      1114      M_A    0.0000
   6539 H          86.4135   52.1472   18.4313 H      1114      M_A    0.0000
   6540 H          86.4705   51.1460   17.1143 H      1114      M_A    0.0000
   6541 C          88.2577   51.3003   18.1146 C.3    1115      M_A    0.0000
   6542 C          88.4134   49.9188   17.7340 C.3    1115      M_A    0.0000
   6543 H          89.0432   51.8592   17.7471 H      1115      M_A    0.0000
   6544 H          88.2857   51.3895   19.1421 H      1115      M_A    0.0000
   6545 H          87.6724   49.3467   18.1676 H      1115      M_A    0.0000
   6546 H          88.3055   49.8188   16.7128 H      1115      M_A    0.0000
   6547 C          89.7257   49.3750   18.1286 C.3    1116      M_A    0.0000
   6548 C          89.6848   47.9501   18.3422 C.3    1116      M_A    0.0000
   6549 H          90.4144   49.6032   17.3951 H      1116      M_A    0.0000
   6550 H          90.0388   49.8527   18.9879 H      1116      M_A    0.0000
   6551 H          88.8533   47.6996   18.8993 H      1116      M_A    0.0000
   6552 H          89.5951   47.4595   17.4390 H      1116      M_A    0.0000
   6553 C          90.8879   47.4542   19.0350 C.3    1117      M_A    0.0000
   6554 C          90.9897   46.0171   18.9919 C.3    1117      M_A    0.0000
   6555 H          91.7211   47.8810   18.6012 H      1117      M_A    0.0000
   6556 H          90.8650   47.7781   20.0143 H      1117      M_A    0.0000
   6557 H          90.3130   45.5947   19.6462 H      1117      M_A    0.0000
   6558 H          90.7456   45.6732   18.0503 H      1117      M_A    0.0000
   6559 C          92.3425   45.5422   19.3354 C.3    1118      M_A    0.0000
   6560 C          92.5688   44.1835   18.9105 C.3    1118      M_A    0.0000
   6561 H          93.0359   46.1694   18.8991 H      1118      M_A    0.0000
   6562 H          92.4732   45.6202   20.3558 H      1118      M_A    0.0000
   6563 H          92.2998   44.0730   17.9206 H      1118      M_A    0.0000
   6564 H          93.5733   43.9564   18.9717 H      1118      M_A    0.0000
   6565 C          91.8116   43.2115   19.7200 C.3    1119      M_A    0.0000
   6566 C          92.2822   41.8618   19.5346 C.3    1119      M_A    0.0000
   6567 H          91.8845   43.4782   20.7141 H      1119      M_A    0.0000
   6568 H          90.8130   43.2757   19.4686 H      1119      M_A    0.0000
   6569 H          92.2310   41.6033   18.5371 H      1119      M_A    0.0000
   6570 H          93.2747   41.7926   19.8080 H      1119      M_A    0.0000
   6571 C          91.5039   40.8859   20.3190 C.3    1120      M_A    0.0000
   6572 C          92.1428   39.5950   20.3735 C.3    1120      M_A    0.0000
   6573 H          91.3718   41.2558   21.2730 H      1120      M_A    0.0000
   6574 H          90.5641   40.7982   19.9024 H      1120      M_A    0.0000
   6575 H          92.9200   39.6133   21.0518 H      1120      M_A    0.0000
   6576 H          91.4746   38.8835   20.7077 H      1120      M_A    0.0000
   6577 C          92.6672   39.1752   19.0612 C.3    1121      M_A    0.0000
   6578 C          93.5436   38.0354   19.1623 C.3    1121      M_A    0.0000
   6579 H          91.8728   38.9567   18.4401 H      1121      M_A    0.0000
   6580 H          93.1678   39.9696   18.6335 H      1121      M_A    0.0000
   6581 H          94.2612   38.2038   19.8843 H      1121      M_A    0.0000
   6582 H          93.0104   37.2047   19.4626 H      1121      M_A    0.0000
   6583 C          94.2159   37.7325   17.8857 C.3    1122      M_A    0.0000
   6584 C          95.2159   36.7038   18.0255 C.3    1122      M_A    0.0000
   6585 H          93.5051   37.4435   17.1959 H      1122      M_A    0.0000
   6586 H          94.6463   38.5973   17.5231 H      1122      M_A    0.0000
   6587 H          94.7684   35.8059   18.2661 H      1122      M_A    0.0000
   6588 H          95.7038   36.5605   17.1278 H      1122      M_A    0.0000
   6589 C          96.2127   37.0307   19.0613 C.3    1123      M_A    0.0000
   6590 C          96.7830   35.8511   19.6622 C.3    1123      M_A    0.0000
   6591 H          96.9564   37.6065   18.6373 H      1123      M_A    0.0000
   6592 H          95.7625   37.6134   19.7840 H      1123      M_A    0.0000
   6593 H          96.0509   35.3152   20.1535 H      1123      M_A    0.0000
   6594 H          97.1641   35.2307   18.9312 H      1123      M_A    0.0000
   6595 C          97.8574   36.1749   20.6184 C.3    1124      M_A    0.0000
   6596 C          98.5887   35.0048   21.0351 C.3    1124      M_A    0.0000
   6597 H          98.4979   36.8552   20.1810 H      1124      M_A    0.0000
   6598 H          97.4425   36.6435   21.4386 H      1124      M_A    0.0000
   6599 H          98.2228   34.6614   21.9366 H      1124      M_A    0.0000
   6600 H          98.4562   34.2430   20.3521 H      1124      M_A    0.0000
   6601 C         100.0320   35.2694   21.1779 C.3    1125      M_A    0.0000
   6602 C         100.8006   34.0560   21.2981 C.3    1125      M_A    0.0000
   6603 H         100.3530   35.8120   20.3611 H      1125      M_A    0.0000
   6604 H         100.1804   35.8657   22.0066 H      1125      M_A    0.0000
   6605 H         100.4593   33.4987   22.0965 H      1125      M_A    0.0000
   6606 H         100.6763   33.4736   20.4556 H      1125      M_A    0.0000
   6607 C         102.2387   34.3216   21.4842 C.3    1126      M_A    0.0000
   6608 C         103.0574   33.5568   20.5773 C.3    1126      M_A    0.0000
   6609 H         102.4106   35.3302   21.3511 H      1126      M_A    0.0000
   6610 H         102.4936   34.1039   22.4600 H      1126      M_A    0.0000
   6611 H         102.6420   32.6246   20.4262 H      1126      M_A    0.0000
   6612 H         103.0909   34.0191   19.6555 H      1126      M_A    0.0000
   6613 C         104.4349   33.3883   21.0748 C.3    1127      M_A    0.0000
   6614 C         105.4081   34.0022   20.2067 C.3    1127      M_A    0.0000
   6615 H         104.4988   33.7946   22.0210 H      1127      M_A    0.0000
   6616 H         104.6327   32.3803   21.1712 H      1127      M_A    0.0000
   6617 H         105.0937   33.9441   19.2258 H      1127      M_A    0.0000
   6618 H         105.4985   35.0054   20.4300 H      1127      M_A    0.0000
   6619 C         106.7349   33.3691   20.3187 C.3    1128      M_A    0.0000
   6620 C         107.8024   34.2723   19.9694 C.3    1128      M_A    0.0000
   6621 H         106.8607   33.0294   21.2848 H      1128      M_A    0.0000
   6622 H         106.7597   32.5386   19.7070 H      1128      M_A    0.0000
   6623 H         107.6200   34.6954   19.0462 H      1128      M_A    0.0000
   6624 H         107.8454   35.0485   20.6478 H      1128      M_A    0.0000
   6625 C         109.1139   33.5999   19.9331 C.3    1129      M_A    0.0000
   6626 C         110.1702   34.4851   19.5108 C.3    1129      M_A    0.0000
   6627 H         109.3211   33.2242   20.8714 H      1129      M_A    0.0000
   6628 H         109.0550   32.7903   19.2962 H      1129      M_A    0.0000
   6629 H         110.1671   35.3402   20.0880 H      1129      M_A    0.0000
   6630 H         111.0874   34.0347   19.6534 H      1129      M_A    0.0000
   6631 C         110.0444   34.8685   18.0928 C.3    1130      M_A    0.0000
   6632 C         110.4853   33.8236   17.2032 C.3    1130      M_A    0.0000
   6633 H         109.0594   35.1061   17.8987 H      1130      M_A    0.0000
   6634 H         110.5938   35.7266   17.9304 H      1130      M_A    0.0000
   6635 H         110.3599   32.9022   17.6502 H      1130      M_A    0.0000
   6636 H         109.9074   33.8193   16.3485 H      1130      M_A    0.0000
   6637 C         111.9004   33.9768   16.8192 C.3    1131      M_A    0.0000
   6638 C         112.4783   32.7396   16.3578 C.3    1131      M_A    0.0000
   6639 H         111.9690   34.6958   16.0824 H      1131      M_A    0.0000
   6640 H         112.4285   34.3330   17.6308 H      1131      M_A    0.0000
   6641 H         112.0781   31.9454   16.8809 H      1131      M_A    0.0000
   6642 H         112.2439   32.5884   15.3645 H      1131      M_A    0.0000
   6643 C         113.9447   32.7173   16.5088 C.3    1132      M_A    0.0000
   6644 C         114.6199   33.2841   15.3684 C.3    1132      M_A    0.0000
   6645 H         114.1989   33.2355   17.3640 H      1132      M_A    0.0000
   6646 H         114.2495   31.7420   16.6517 H      1132      M_A    0.0000
   6647 H         114.1386   33.0075   14.4988 H      1132      M_A    0.0000
   6648 H         114.5841   34.3143   15.4120 H      1132      M_A    0.0000
   6649 C         116.0297   32.8607   15.2865 C.3    1133      M_A    0.0000
   6650 C         116.8806   33.8950   14.7538 C.3    1133      M_A    0.0000
   6651 H         116.3506   32.5890   16.2287 H      1133      M_A    0.0000
   6652 H         116.0894   32.0154   14.6980 H      1133      M_A    0.0000
   6653 H         116.5303   34.2020   13.8332 H      1133      M_A    0.0000
   6654 H         116.8598   34.7224   15.3697 H      1133      M_A    0.0000
   6655 C         118.2777   33.4480   14.6056 C.3    1134      M_A    0.0000
   6656 C         119.2214   34.4841   14.9426 C.3    1134      M_A    0.0000
   6657 H         118.4284   32.6230   15.2067 H      1134      M_A    0.0000
   6658 H         118.4260   33.1370   13.6331 H      1134      M_A    0.0000
   6659 H         119.0172   35.3383   14.4012 H      1134      M_A    0.0000
   6660 H         119.1297   34.7357   15.9389 H      1134      M_A    0.0000
   6661 C         120.6143   34.0776   14.6814 C.3    1135      M_A    0.0000
   6662 C         121.4652   34.2756   15.8278 C.3    1135      M_A    0.0000
   6663 H         120.6239   33.0848   14.4009 H      1135      M_A    0.0000
   6664 H         120.9726   34.6161   13.8776 H      1135      M_A    0.0000
   6665 H         121.7564   35.2637   15.8858 H      1135      M_A    0.0000
   6666 H         120.9450   34.0688   16.6945 H      1135      M_A    0.0000
   6667 C         122.6699   33.4270   15.7827 C.3    1136      M_A    0.0000
   6668 C         123.7968   34.1088   15.1971 C.3    1136      M_A    0.0000
   6669 H         122.8993   33.1238   16.7418 H      1136      M_A    0.0000
   6670 H         122.4550   32.5728   15.2454 H      1136      M_A    0.0000
   6671 H         123.4845   34.6945   14.4073 H      1136      M_A    0.0000
   6672 H         124.2228   34.7458   15.8880 H      1136      M_A    0.0000
   6673 C         124.8281   33.1719   14.7154 C.3    1137      M_A    0.0000
   6674 C         125.1451   33.3766   13.3243 C.3    1137      M_A    0.0000
   6675 H         125.6761   33.2855   15.2920 H      1137      M_A    0.0000
   6676 H         124.4959   32.2065   14.8641 H      1137      M_A    0.0000
   6677 H         124.3076   33.6970   12.8140 H      1137      M_A    0.0000
   6678 H         125.8531   34.1210   13.2287 H      1137      M_A    0.0000
   6679 C         125.6539   32.1515   12.6810 C.3    1138      M_A    0.0000
   6680 C         127.0610   31.9520   12.9217 C.3    1138      M_A    0.0000
   6681 H         125.1168   31.3437   13.0325 H      1138      M_A    0.0000
   6682 H         125.4731   32.2088   11.6669 H      1138      M_A    0.0000
   6683 H         127.5275   31.6413   12.0556 H      1138      M_A    0.0000
   6684 H         127.5034   32.8437   13.1931 H      1138      M_A    0.0000
   6685 C         127.3111   30.9562   13.9797 C.3    1139      M_A    0.0000
   6686 C         128.4128   30.0838   13.6592 C.3    1139      M_A    0.0000
   6687 H         127.4981   31.4516   14.8652 H      1139      M_A    0.0000
   6688 H         126.4525   30.4029   14.1253 H      1139      M_A    0.0000
   6689 H         128.2740   29.6669   12.7257 H      1139      M_A    0.0000
   6690 H         129.2906   30.6241   13.6148 H      1139      M_A    0.0000
   6691 C         128.5718   28.9992   14.6451 C.3    1140      M_A    0.0000
   6692 C         129.8091   28.2805   14.4718 C.3    1140      M_A    0.0000
   6693 H         128.5269   29.4028   15.5936 H      1140      M_A    0.0000
   6694 H         127.7722   28.3527   14.5601 H      1140      M_A    0.0000
   6695 H         129.7102   27.5823   13.7187 H      1140      M_A    0.0000
   6696 H         130.5566   28.9284   14.1788 H      1140      M_A    0.0000
   6697 C         130.2331   27.5925   15.7049 C.3    1141      M_A    0.0000
   6698 C         130.6865   26.2479   15.4519 C.3    1141      M_A    0.0000
   6699 H         130.9846   28.1413   16.1503 H      1141      M_A    0.0000
   6700 H         129.4424   27.5804   16.3676 H      1141      M_A    0.0000
   6701 H         131.2572   26.2228   14.5927 H      1141      M_A    0.0000
   6702 H         131.2954   25.9292   16.2214 H      1141      M_A    0.0000
   6703 C         129.5677   25.2988   15.3071 C.3    1142      M_A    0.0000
   6704 C         130.0184   23.9677   14.9868 C.3    1142      M_A    0.0000
   6705 H         129.0258   25.2872   16.1850 H      1142      M_A    0.0000
   6706 H         128.9321   25.6438   14.5712 H      1142      M_A    0.0000
   6707 H         130.1159   23.8635   13.9650 H      1142      M_A    0.0000
   6708 H         130.9530   23.8036   15.3919 H      1142      M_A    0.0000
   6709 C         129.0962   22.9307   15.4844 C.3    1143      M_A    0.0000
   6710 C         128.7765   21.9536   14.4740 C.3    1143      M_A    0.0000
   6711 H         129.5252   22.4681   16.3007 H      1143      M_A    0.0000
   6712 H         128.2340   23.3863   15.8212 H      1143      M_A    0.0000
   6713 H         127.7697   21.7305   14.5037 H      1143      M_A    0.0000
   6714 H         128.9670   22.3391   13.5362 H      1143      M_A    0.0000
   6715 C         129.5448   20.7063   14.6401 C.3    1144      M_A    0.0000
   6716 C         130.4143   20.4471   13.5201 C.3    1144      M_A    0.0000
   6717 H         130.0968   20.7690   15.5095 H      1144      M_A    0.0000
   6718 H         128.8846   19.9231   14.7641 H      1144      M_A    0.0000
   6719 H         129.8919   19.9687   12.7700 H      1144      M_A    0.0000
   6720 H         130.7548   21.3365   13.1233 H      1144      M_A    0.0000
   6721 C         131.5749   19.6184   13.8940 C.3    1145      M_A    0.0000
   6722 C         131.4580   18.2652   13.4114 C.3    1145      M_A    0.0000
   6723 H         132.4305   20.0554   13.5179 H      1145      M_A    0.0000
   6724 H         131.6681   19.6207   14.9215 H      1145      M_A    0.0000
   6725 H         130.9241   17.6943   14.0849 H      1145      M_A    0.0000
   6726 H         130.9294   18.2499   12.5255 H      1145      M_A    0.0000
   6727 C         132.7725   17.6350   13.1913 C.3    1146      M_A    0.0000
   6728 C         133.0546   16.6068   14.1613 C.3    1146      M_A    0.0000
   6729 H         132.7961   17.2389   12.2389 H      1146      M_A    0.0000
   6730 H         133.5012   18.3645   13.2269 H      1146      M_A    0.0000
   6731 H         134.0443   16.3223   14.0975 H      1146      M_A    0.0000
   6732 H         132.9122   16.9720   15.1156 H      1146      M_A    0.0000
   6733 C         132.2051   15.4161   13.9765 C.3    1147      M_A    0.0000
   6734 C         132.9801   14.2098   13.8283 C.3    1147      M_A    0.0000
   6735 H         131.5704   15.3317   14.7855 H      1147      M_A    0.0000
   6736 H         131.6095   15.5582   13.1461 H      1147      M_A    0.0000
   6737 H         132.5819   13.6234   13.0786 H      1147      M_A    0.0000
   6738 H         133.9441   14.4415   13.5429 H      1147      M_A    0.0000
   6739 C         133.0295   13.4211   15.0729 C.3    1148      M_A    0.0000
   6740 C         134.3806   13.1278   15.4804 C.2    1148      M_A    0.0000
   6741 H         132.5410   13.9429   15.8169 H      1148      M_A    0.0000
   6742 H         132.5042   12.5443   14.9320 H      1148      M_A    0.0000
   6743 H         134.8692   12.6060   14.7364 H      1148      M_A    0.0000
   6744 H         134.9059   14.0045   15.6213 H      1148      M_A    0.0000
@<TRIPOS>BOND
     1     6     7      1
     2     8     9      1
     3    10    11      1
     4    12    13      1
     5    14    15      1
     6    16    17      1
     7    18    19      1
     8    20    21      1
     9    22    23      1
    10    24    25      1
    11    26    27      1
    12    27    28      1
    13    29    30      1
    14    30    31      1
    15    32    33      1
    16    33    34      1
    17    35    36      1
    18    36    37      1
    19    38    39      1
    20    39    40      1
    21    41    42      1
    22    42    43      1
    23    44    45      1
    24    45    46      1
    25    47    48      1
    26    48    49      1
    27    50    51      1
    28    51    52      1
    29    53    54      1
    30    54    55      1
    31    56    57      1
    32    57    58      1
    33    59    60      1
    34    60    61      1
    35    62    63      1
    36    63    64      1
    37    65    66      1
    38    66    67      1
    39    68    69      1
    40    69    70      1
    41    71    72      1
    42    71    73      1
    43    71    74      1
    44    75    76      1
    45    75    77      1
    46    75    78      1
    47    79    80      1
    48    79    81      1
    49    79    82      1
    50    83    84      1
    51    83    85      1
    52    83    86      1
    53    87    88      1
    54    87    89      1
    55    87    90      1
    56    91    92      1
    57    91    93      1
    58    91    94      1
    59    95    96      1
    60    95    97      1
    61    95    98      1
    62    99   100      1
    63    99   101      1
    64    99   102      1
    65   103   104      1
    66   103   105      1
    67   103   106      1
    68   107   108      1
    69   107   109      1
    70   107   110      1
    71   111   112      1
    72   111   113      1
    73   111   114      1
    74   115   116      1
    75   115   117      1
    76   115   118      1
    77   119   120      1
    78   119   121      1
    79   119   122      1
    80   123   124      1
    81   123   125      1
    82   123   126      1
    83   127   128      1
    84   127   129      1
    85   127   130      1
    86   131   132      1
    87   131   133      1
    88   131   134      1
    89   135   136      1
    90   135   137      1
    91   135   138      1
    92   139   140      1
    93   139   141      1
    94   139   142      1
    95   143   144      1
    96   143   145      1
    97   143   146      1
    98   147   148      1
    99   147   149      1
   100   147   150      1
   101   151   152      1
   102   151   153      1
   103   151   154      1
   104   152   155      1
   105   152   156      1
   106   152   157      1
   107   157   158      1
   108   157   159      1
   109   157   160      1
   110   158   161      1
   111   158   162      1
   112   158   163      1
   113   163   164      1
   114   163   165      1
   115   163   166      1
   116   164   167      1
   117   164   168      1
   118   164   169      1
   119   169   170      1
   120   169   171      1
   121   169   172      1
   122   170   173      1
   123   170   174      1
   124   170   175      1
   125   175   176      1
   126   175   177      1
   127   175   178      1
   128   176   179      1
   129   176   180      1
   130   176   181      1
   131   181   182      1
   132   181   183      1
   133   181   184      1
   134   182   185      1
   135   182   186      1
   136   182   187      1
   137   187   188      1
   138   187   189      1
   139   187   190      1
   140   188   191      1
   141   188   192      1
   142   188   193      1
   143   193   194      1
   144   193   195      1
   145   193   196      1
   146   194   197      1
   147   194   198      1
   148   194   199      1
   149   199   200      1
   150   199   201      1
   151   199   202      1
   152   200   203      1
   153   200   204      1
   154   200   205      1
   155   205   206      1
   156   205   207      1
   157   205   208      1
   158   206   209      1
   159   206   210      1
   160   206   211      1
   161   211   212      1
   162   211   213      1
   163   211   214      1
   164   212   215      1
   165   212   216      1
   166   212   217      1
   167   217   218      1
   168   217   219      1
   169   217   220      1
   170   218   221      1
   171   218   222      1
   172   218   223      1
   173   223   224      1
   174   223   225      1
   175   223   226      1
   176   224   227      1
   177   224   228      1
   178   224   229      1
   179   229   230      1
   180   229   231      1
   181   229   232      1
   182   230   233      1
   183   230   234      1
   184   230   235      1
   185   235   236      1
   186   235   237      1
   187   235   238      1
   188   236   239      1
   189   236   240      1
   190   236   241      1
   191   241   242      1
   192   241   243      1
   193   241   244      1
   194   242   245      1
   195   242   246      1
   196   242   247      1
   197   247   248      1
   198   247   249      1
   199   247   250      1
   200   248   251      1
   201   248   252      1
   202   248   253      1
   203   253   254      1
   204   253   255      1
   205   253   256      1
   206   254   257      1
   207   254   258      1
   208   254   259      1
   209   259   260      1
   210   259   261      1
   211   259   262      1
   212   260   263      1
   213   260   264      1
   214   260   265      1
   215   265   266      1
   216   265   267      1
   217   265   268      1
   218   266   269      1
   219   266   270      1
   220   271   272      1
   221   271   273      1
   222   271   274      1
   223   272   275      1
   224   272   276      1
   225   272   277      1
   226   277   278      1
   227   277   279      1
   228   277   280      1
   229   278   281      1
   230   278   282      1
   231   278   283      1
   232   283   284      1
   233   283   285      1
   234   283   286      1
   235   284   287      1
   236   284   288      1
   237   284   289      1
   238   289   290      1
   239   289   291      1
   240   289   292      1
   241   290   293      1
   242   290   294      1
   243   290   295      1
   244   295   296      1
   245   295   297      1
   246   295   298      1
   247   296   299      1
   248   296   300      1
   249   296   301      1
   250   301   302      1
   251   301   303      1
   252   301   304      1
   253   302   305      1
   254   302   306      1
   255   302   307      1
   256   307   308      1
   257   307   309      1
   258   307   310      1
   259   308   311      1
   260   308   312      1
   261   308   313      1
   262   313   314      1
   263   313   315      1
   264   313   316      1
   265   314   317      1
   266   314   318      1
   267   314   319      1
   268   319   320      1
   269   319   321      1
   270   319   322      1
   271   320   323      1
   272   320   324      1
   273   320   325      1
   274   325   326      1
   275   325   327      1
   276   325   328      1
   277   326   329      1
   278   326   330      1
   279   326   331      1
   280   331   332      1
   281   331   333      1
   282   331   334      1
   283   332   335      1
   284   332   336      1
   285   332   337      1
   286   337   338      1
   287   337   339      1
   288   337   340      1
   289   338   341      1
   290   338   342      1
   291   343   344      1
   292   343   345      1
   293   343   346      1
   294   344   347      1
   295   344   348      1
   296   344   349      1
   297   349   350      1
   298   349   351      1
   299   349   352      1
   300   350   353      1
   301   350   354      1
   302   350   355      1
   303   355   356      1
   304   355   357      1
   305   355   358      1
   306   356   359      1
   307   356   360      1
   308   356   361      1
   309   361   362      1
   310   361   363      1
   311   361   364      1
   312   362   365      1
   313   362   366      1
   314   362   367      1
   315   367   368      1
   316   367   369      1
   317   367   370      1
   318   368   371      1
   319   368   372      1
   320   368   373      1
   321   373   374      1
   322   373   375      1
   323   373   376      1
   324   374   377      1
   325   374   378      1
   326   374   379      1
   327   379   380      1
   328   379   381      1
   329   379   382      1
   330   380   383      1
   331   380   384      1
   332   380   385      1
   333   385   386      1
   334   385   387      1
   335   385   388      1
   336   386   389      1
   337   386   390      1
   338   386   391      1
   339   391   392      1
   340   391   393      1
   341   391   394      1
   342   392   395      1
   343   392   396      1
   344   392   397      1
   345   397   398      1
   346   397   399      1
   347   397   400      1
   348   398   401      1
   349   398   402      1
   350   398   403      1
   351   403   404      1
   352   403   405      1
   353   403   406      1
   354   404   407      1
   355   404   408      1
   356   404   409      1
   357   409   410      1
   358   409   411      1
   359   409   412      1
   360   410   413      1
   361   410   414      1
   362   410   415      1
   363   415   416      1
   364   415   417      1
   365   415   418      1
   366   416   419      1
   367   416   420      1
   368   416   421      1
   369   421   422      1
   370   421   423      1
   371   421   424      1
   372   422   425      1
   373   422   426      1
   374   422   427      1
   375   427   428      1
   376   427   429      1
   377   427   430      1
   378   428   431      1
   379   428   432      1
   380   428   433      1
   381   433   434      1
   382   433   435      1
   383   433   436      1
   384   434   437      1
   385   434   438      1
   386   434   439      1
   387   439   440      1
   388   439   441      1
   389   439   442      1
   390   440   443      1
   391   440   444      1
   392   440   445      1
   393   445   446      1
   394   445   447      1
   395   445   448      1
   396   446   449      1
   397   446   450      1
   398   446   451      1
   399   451   452      1
   400   451   453      1
   401   451   454      1
   402   452   455      1
   403   452   456      1
   404   452   457      1
   405   457   458      1
   406   457   459      1
   407   457   460      1
   408   458   461      1
   409   458   462      1
   410   458   463      1
   411   463   464      1
   412   463   465      1
   413   463   466      1
   414   464   467      1
   415   464   468      1
   416   464   469      1
   417   469   470      1
   418   469   471      1
   419   469   472      1
   420   470   473      1
   421   470   474      1
   422   470   475      1
   423   475   476      1
   424   475   477      1
   425   475   478      1
   426   476   479      1
   427   476   480      1
   428   476   481      1
   429   481   482      1
   430   481   483      1
   431   481   484      1
   432   482   485      1
   433   482   486      1
   434   482   487      1
   435   487   488      1
   436   487   489      1
   437   487   490      1
   438   488   491      1
   439   488   492      1
   440   488   493      1
   441   493   494      1
   442   493   495      1
   443   493   496      1
   444   494   497      1
   445   494   498      1
   446   494   499      1
   447   499   500      1
   448   499   501      1
   449   499   502      1
   450   500   503      1
   451   500   504      1
   452   500   505      1
   453   505   506      1
   454   505   507      1
   455   505   508      1
   456   506   509      1
   457   506   510      1
   458   506   511      1
   459   511   512      1
   460   511   513      1
   461   511   514      1
   462   512   515      1
   463   512   516      1
   464   512   517      1
   465   517   518      1
   466   517   519      1
   467   517   520      1
   468   518   521      1
   469   518   522      1
   470   518   523      1
   471   523   524      1
   472   523   525      1
   473   523   526      1
   474   524   527      1
   475   524   528      1
   476   524   529      1
   477   529   530      1
   478   529   531      1
   479   529   532      1
   480   530   533      1
   481   530   534      1
   482   530   535      1
   483   535   536      1
   484   535   537      1
   485   535   538      1
   486   536   539      1
   487   536   540      1
   488   536   541      1
   489   541   542      1
   490   541   543      1
   491   541   544      1
   492   542   545      1
   493   542   546      1
   494   542   547      1
   495   547   548      1
   496   547   549      1
   497   547   550      1
   498   548   551      1
   499   548   552      1
   500   553   554      1
   501   553   555      1
   502   553   556      1
   503   554   557      1
   504   554   558      1
   505   554   559      1
   506   559   560      1
   507   559   561      1
   508   559   562      1
   509   560   563      1
   510   560   564      1
   511   560   565      1
   512   565   566      1
   513   565   567      1
   514   565   568      1
   515   566   569      1
   516   566   570      1
   517   566   571      1
   518   571   572      1
   519   571   573      1
   520   571   574      1
   521   572   575      1
   522   572   576      1
   523   572   577      1
   524   577   578      1
   525   577   579      1
   526   577   580      1
   527   578   581      1
   528   578   582      1
   529   578   583      1
   530   583   584      1
   531   583   585      1
   532   583   586      1
   533   584   587      1
   534   584   588      1
   535   584   589      1
   536   589   590      1
   537   589   591      1
   538   589   592      1
   539   590   593      1
   540   590   594      1
   541   590   595      1
   542   595   596      1
   543   595   597      1
   544   595   598      1
   545   596   599      1
   546   596   600      1
   547   596   601      1
   548   601   602      1
   549   601   603      1
   550   601   604      1
   551   602   605      1
   552   602   606      1
   553   602   607      1
   554   607   608      1
   555   607   609      1
   556   607   610      1
   557   608   611      1
   558   608   612      1
   559   608   613      1
   560   613   614      1
   561   613   615      1
   562   613   616      1
   563   614   617      1
   564   614   618      1
   565   614   619      1
   566   619   620      1
   567   619   621      1
   568   619   622      1
   569   620   623      1
   570   620   624      1
   571   620   625      1
   572   625   626      1
   573   625   627      1
   574   625   628      1
   575   626   629      1
   576   626   630      1
   577   626   631      1
   578   631   632      1
   579   631   633      1
   580   631   634      1
   581   632   635      1
   582   632   636      1
   583   632   637      1
   584   637   638      1
   585   637   639      1
   586   637   640      1
   587   638   641      1
   588   638   642      1
   589   638   643      1
   590   643   644      1
   591   643   645      1
   592   643   646      1
   593   644   647      1
   594   644   648      1
   595   644   649      1
   596   649   650      1
   597   649   651      1
   598   649   652      1
   599   650   653      1
   600   650   654      1
   601   650   655      1
   602   655   656      1
   603   655   657      1
   604   655   658      1
   605   656   659      1
   606   656   660      1
   607   656   661      1
   608   661   662      1
   609   661   663      1
   610   661   664      1
   611   662   665      1
   612   662   666      1
   613   667   668      1
   614   667   669      1
   615   667   670      1
   616   668   671      1
   617   668   672      1
   618   668   673      1
   619   673   674      1
   620   673   675      1
   621   673   676      1
   622   674   677      1
   623   674   678      1
   624   674   679      1
   625   679   680      1
   626   679   681      1
   627   679   682      1
   628   680   683      1
   629   680   684      1
   630   680   685      1
   631   685   686      1
   632   685   687      1
   633   685   688      1
   634   686   689      1
   635   686   690      1
   636   686   691      1
   637   691   692      1
   638   691   693      1
   639   691   694      1
   640   692   695      1
   641   692   696      1
   642   692   697      1
   643   697   698      1
   644   697   699      1
   645   697   700      1
   646   698   701      1
   647   698   702      1
   648   698   703      1
   649   703   704      1
   650   703   705      1
   651   703   706      1
   652   704   707      1
   653   704   708      1
   654   704   709      1
   655   709   710      1
   656   709   711      1
   657   709   712      1
   658   710   713      1
   659   710   714      1
   660   710   715      1
   661   715   716      1
   662   715   717      1
   663   715   718      1
   664   716   719      1
   665   716   720      1
   666   716   721      1
   667   721   722      1
   668   721   723      1
   669   721   724      1
   670   722   725      1
   671   722   726      1
   672   722   727      1
   673   727   728      1
   674   727   729      1
   675   727   730      1
   676   728   731      1
   677   728   732      1
   678   728   733      1
   679   733   734      1
   680   733   735      1
   681   733   736      1
   682   734   737      1
   683   734   738      1
   684   739   740      1
   685   739   741      1
   686   739   742      1
   687   740   743      1
   688   740   744      1
   689   740   745      1
   690   745   746      1
   691   745   747      1
   692   745   748      1
   693   746   749      1
   694   746   750      1
   695   746   751      1
   696   751   752      1
   697   751   753      1
   698   751   754      1
   699   752   755      1
   700   752   756      1
   701   752   757      1
   702   757   758      1
   703   757   759      1
   704   757   760      1
   705   758   761      1
   706   758   762      1
   707   758   763      1
   708   763   764      1
   709   763   765      1
   710   763   766      1
   711   764   767      1
   712   764   768      1
   713   764   769      1
   714   769   770      1
   715   769   771      1
   716   769   772      1
   717   770   773      1
   718   770   774      1
   719   770   775      1
   720   775   776      1
   721   775   777      1
   722   775   778      1
   723   776   779      1
   724   776   780      1
   725   776   781      1
   726   781   782      1
   727   781   783      1
   728   781   784      1
   729   782   785      1
   730   782   786      1
   731   782   787      1
   732   787   788      1
   733   787   789      1
   734   787   790      1
   735   788   791      1
   736   788   792      1
   737   788   793      1
   738   793   794      1
   739   793   795      1
   740   793   796      1
   741   794   797      1
   742   794   798      1
   743   794   799      1
   744   799   800      1
   745   799   801      1
   746   799   802      1
   747   800   803      1
   748   800   804      1
   749   800   805      1
   750   805   806      1
   751   805   807      1
   752   805   808      1
   753   806   809      1
   754   806   810      1
   755   806   811      1
   756   811   812      1
   757   811   813      1
   758   811   814      1
   759   812   815      1
   760   812   816      1
   761   812   817      1
   762   817   818      1
   763   817   819      1
   764   817   820      1
   765   818   821      1
   766   818   822      1
   767   818   823      1
   768   823   824      1
   769   823   825      1
   770   823   826      1
   771   824   827      1
   772   824   828      1
   773   824   829      1
   774   829   830      1
   775   829   831      1
   776   829   832      1
   777   830   833      1
   778   830   834      1
   779   830   835      1
   780   835   836      1
   781   835   837      1
   782   835   838      1
   783   836   839      1
   784   836   840      1
   785   836   841      1
   786   841   842      1
   787   841   843      1
   788   841   844      1
   789   842   845      1
   790   842   846      1
   791   842   847      1
   792   847   848      1
   793   847   849      1
   794   847   850      1
   795   848   851      1
   796   848   852      1
   797   848   853      1
   798   853   854      1
   799   853   855      1
   800   853   856      1
   801   854   857      1
   802   854   858      1
   803   854   859      1
   804   859   860      1
   805   859   861      1
   806   859   862      1
   807   860   863      1
   808   860   864      1
   809   860   865      1
   810   865   866      1
   811   865   867      1
   812   865   868      1
   813   866   869      1
   814   866   870      1
   815   871   872      1
   816   871   873      1
   817   871   874      1
   818   872   875      1
   819   872   876      1
   820   872   877      1
   821   877   878      1
   822   877   879      1
   823   877   880      1
   824   878   881      1
   825   878   882      1
   826   878   883      1
   827   883   884      1
   828   883   885      1
   829   883   886      1
   830   884   887      1
   831   884   888      1
   832   884   889      1
   833   889   890      1
   834   889   891      1
   835   889   892      1
   836   890   893      1
   837   890   894      1
   838   890   895      1
   839   895   896      1
   840   895   897      1
   841   895   898      1
   842   896   899      1
   843   896   900      1
   844   896   901      1
   845   901   902      1
   846   901   903      1
   847   901   904      1
   848   902   905      1
   849   902   906      1
   850   902   907      1
   851   907   908      1
   852   907   909      1
   853   907   910      1
   854   908   911      1
   855   908   912      1
   856   908   913      1
   857   913   914      1
   858   913   915      1
   859   913   916      1
   860   914   917      1
   861   914   918      1
   862   914   919      1
   863   919   920      1
   864   919   921      1
   865   919   922      1
   866   920   923      1
   867   920   924      1
   868   920   925      1
   869   925   926      1
   870   925   927      1
   871   925   928      1
   872   926   929      1
   873   926   930      1
   874   926   931      1
   875   931   932      1
   876   931   933      1
   877   931   934      1
   878   932   935      1
   879   932   936      1
   880   932   937      1
   881   937   938      1
   882   937   939      1
   883   937   940      1
   884   938   941      1
   885   938   942      1
   886   943   944      1
   887   943   945      1
   888   943   946      1
   889   944   947      1
   890   944   948      1
   891   944   949      1
   892   949   950      1
   893   949   951      1
   894   949   952      1
   895   950   953      1
   896   950   954      1
   897   950   955      1
   898   955   956      1
   899   955   957      1
   900   955   958      1
   901   956   959      1
   902   956   960      1
   903   956   961      1
   904   961   962      1
   905   961   963      1
   906   961   964      1
   907   962   965      1
   908   962   966      1
   909   962   967      1
   910   967   968      1
   911   967   969      1
   912   967   970      1
   913   968   971      1
   914   968   972      1
   915   968   973      1
   916   973   974      1
   917   973   975      1
   918   973   976      1
   919   974   977      1
   920   974   978      1
   921   974   979      1
   922   979   980      1
   923   979   981      1
   924   979   982      1
   925   980   983      1
   926   980   984      1
   927   980   985      1
   928   985   986      1
   929   985   987      1
   930   985   988      1
   931   986   989      1
   932   986   990      1
   933   986   991      1
   934   991   992      1
   935   991   993      1
   936   991   994      1
   937   992   995      1
   938   992   996      1
   939   992   997      1
   940   997   998      1
   941   997   999      1
   942   997  1000      1
   943   998  1001      1
   944   998  1002      1
   945   998  1003      1
   946  1003  1004      1
   947  1003  1005      1
   948  1003  1006      1
   949  1004  1007      1
   950  1004  1008      1
   951  1004  1009      1
   952  1009  1010      1
   953  1009  1011      1
   954  1009  1012      1
   955  1010  1013      1
   956  1010  1014      1
   957  1010  1015      1
   958  1015  1016      1
   959  1015  1017      1
   960  1015  1018      1
   961  1016  1019      1
   962  1016  1020      1
   963  1016  1021      1
   964  1021  1022      1
   965  1021  1023      1
   966  1021  1024      1
   967  1022  1025      1
   968  1022  1026      1
   969  1022  1027      1
   970  1027  1028      1
   971  1027  1029      1
   972  1027  1030      1
   973  1028  1031      1
   974  1028  1032      1
   975  1028  1033      1
   976  1033  1034      1
   977  1033  1035      1
   978  1033  1036      1
   979  1034  1037      1
   980  1034  1038      1
   981  1034  1039      1
   982  1039  1040      1
   983  1039  1041      1
   984  1039  1042      1
   985  1040  1043      1
   986  1040  1044      1
   987  1040  1045      1
   988  1045  1046      1
   989  1045  1047      1
   990  1045  1048      1
   991  1046  1049      1
   992  1046  1050      1
   993  1046  1051      1
   994  1051  1052      1
   995  1051  1053      1
   996  1051  1054      1
   997  1052  1055      1
   998  1052  1056      1
   999  1052  1057      1
  1000  1057  1058      1
  1001  1057  1059      1
  1002  1057  1060      1
  1003  1058  1061      1
  1004  1058  1062      1
  1005  1058  1063      1
  1006  1063  1064      1
  1007  1063  1065      1
  1008  1063  1066      1
  1009  1064  1067      1
  1010  1064  1068      1
  1011  1064  1069      1
  1012  1069  1070      1
  1013  1069  1071      1
  1014  1069  1072      1
  1015  1070  1073      1
  1016  1070  1074      1
  1017  1075  1076      1
  1018  1075  1077      1
  1019  1075  1078      1
  1020  1076  1079      1
  1021  1076  1080      1
  1022  1076  1081      1
  1023  1081  1082      1
  1024  1081  1083      1
  1025  1081  1084      1
  1026  1082  1085      1
  1027  1082  1086      1
  1028  1082  1087      1
  1029  1087  1088      1
  1030  1087  1089      1
  1031  1087  1090      1
  1032  1088  1091      1
  1033  1088  1092      1
  1034  1088  1093      1
  1035  1093  1094      1
  1036  1093  1095      1
  1037  1093  1096      1
  1038  1094  1097      1
  1039  1094  1098      1
  1040  1094  1099      1
  1041  1099  1100      1
  1042  1099  1101      1
  1043  1099  1102      1
  1044  1100  1103      1
  1045  1100  1104      1
  1046  1100  1105      1
  1047  1105  1106      1
  1048  1105  1107      1
  1049  1105  1108      1
  1050  1106  1109      1
  1051  1106  1110      1
  1052  1106  1111      1
  1053  1111  1112      1
  1054  1111  1113      1
  1055  1111  1114      1
  1056  1112  1115      1
  1057  1112  1116      1
  1058  1112  1117      1
  1059  1117  1118      1
  1060  1117  1119      1
  1061  1117  1120      1
  1062  1118  1121      1
  1063  1118  1122      1
  1064  1118  1123      1
  1065  1123  1124      1
  1066  1123  1125      1
  1067  1123  1126      1
  1068  1124  1127      1
  1069  1124  1128      1
  1070  1124  1129      1
  1071  1129  1130      1
  1072  1129  1131      1
  1073  1129  1132      1
  1074  1130  1133      1
  1075  1130  1134      1
  1076  1130  1135      1
  1077  1135  1136      1
  1078  1135  1137      1
  1079  1135  1138      1
  1080  1136  1139      1
  1081  1136  1140      1
  1082  1136  1141      1
  1083  1141  1142      1
  1084  1141  1143      1
  1085  1141  1144      1
  1086  1142  1145      1
  1087  1142  1146      1
  1088  1142  1147      1
  1089  1147  1148      1
  1090  1147  1149      1
  1091  1147  1150      1
  1092  1148  1151      1
  1093  1148  1152      1
  1094  1148  1153      1
  1095  1153  1154      1
  1096  1153  1155      1
  1097  1153  1156      1
  1098  1154  1157      1
  1099  1154  1158      1
  1100  1154  1159      1
  1101  1159  1160      1
  1102  1159  1161      1
  1103  1159  1162      1
  1104  1160  1163      1
  1105  1160  1164      1
  1106  1160  1165      1
  1107  1165  1166      1
  1108  1165  1167      1
  1109  1165  1168      1
  1110  1166  1169      1
  1111  1166  1170      1
  1112  1166  1171      1
  1113  1171  1172      1
  1114  1171  1173      1
  1115  1171  1174      1
  1116  1172  1175      1
  1117  1172  1176      1
  1118  1172  1177      1
  1119  1177  1178      1
  1120  1177  1179      1
  1121  1177  1180      1
  1122  1178  1181      1
  1123  1178  1182      1
  1124  1178  1183      1
  1125  1183  1184      1
  1126  1183  1185      1
  1127  1183  1186      1
  1128  1184  1187      1
  1129  1184  1188      1
  1130  1184  1189      1
  1131  1189  1190      1
  1132  1189  1191      1
  1133  1189  1192      1
  1134  1190  1193      1
  1135  1190  1194      1
  1136  1190  1195      1
  1137  1195  1196      1
  1138  1195  1197      1
  1139  1195  1198      1
  1140  1196  1199      1
  1141  1196  1200      1
  1142  1196  1201      1
  1143  1201  1202      1
  1144  1201  1203      1
  1145  1201  1204      1
  1146  1202  1205      1
  1147  1202  1206      1
  1148  1202  1207      1
  1149  1207  1208      1
  1150  1207  1209      1
  1151  1207  1210      1
  1152  1208  1211      1
  1153  1208  1212      1
  1154  1208  1213      1
  1155  1213  1214      1
  1156  1213  1215      1
  1157  1213  1216      1
  1158  1214  1217      1
  1159  1214  1218      1
  1160  1214  1219      1
  1161  1219  1220      1
  1162  1219  1221      1
  1163  1219  1222      1
  1164  1220  1223      1
  1165  1220  1224      1
  1166  1220  1225      1
  1167  1225  1226      1
  1168  1225  1227      1
  1169  1225  1228      1
  1170  1226  1229      1
  1171  1226  1230      1
  1172  1226  1231      1
  1173  1231  1232      1
  1174  1231  1233      1
  1175  1231  1234      1
  1176  1232  1235      1
  1177  1232  1236      1
  1178  1232  1237      1
  1179  1237  1238      1
  1180  1237  1239      1
  1181  1237  1240      1
  1182  1238  1241      1
  1183  1238  1242      1
  1184  1238  1243      1
  1185  1243  1244      1
  1186  1243  1245      1
  1187  1243  1246      1
  1188  1244  1247      1
  1189  1244  1248      1
  1190  1244  1249      1
  1191  1249  1250      1
  1192  1249  1251      1
  1193  1249  1252      1
  1194  1250  1253      1
  1195  1250  1254      1
  1196  1255  1256      1
  1197  1255  1257      1
  1198  1255  1258      1
  1199  1256  1259      1
  1200  1256  1260      1
  1201  1256  1261      1
  1202  1261  1262      1
  1203  1261  1263      1
  1204  1261  1264      1
  1205  1262  1265      1
  1206  1262  1266      1
  1207  1262  1267      1
  1208  1267  1268      1
  1209  1267  1269      1
  1210  1267  1270      1
  1211  1268  1271      1
  1212  1268  1272      1
  1213  1268  1273      1
  1214  1273  1274      1
  1215  1273  1275      1
  1216  1273  1276      1
  1217  1274  1277      1
  1218  1274  1278      1
  1219  1274  1279      1
  1220  1279  1280      1
  1221  1279  1281      1
  1222  1279  1282      1
  1223  1280  1283      1
  1224  1280  1284      1
  1225  1280  1285      1
  1226  1285  1286      1
  1227  1285  1287      1
  1228  1285  1288      1
  1229  1286  1289      1
  1230  1286  1290      1
  1231  1286  1291      1
  1232  1291  1292      1
  1233  1291  1293      1
  1234  1291  1294      1
  1235  1292  1295      1
  1236  1292  1296      1
  1237  1292  1297      1
  1238  1297  1298      1
  1239  1297  1299      1
  1240  1297  1300      1
  1241  1298  1301      1
  1242  1298  1302      1
  1243  1298  1303      1
  1244  1303  1304      1
  1245  1303  1305      1
  1246  1303  1306      1
  1247  1304  1307      1
  1248  1304  1308      1
  1249  1304  1309      1
  1250  1309  1310      1
  1251  1309  1311      1
  1252  1309  1312      1
  1253  1310  1313      1
  1254  1310  1314      1
  1255  1310  1315      1
  1256  1315  1316      1
  1257  1315  1317      1
  1258  1315  1318      1
  1259  1316  1319      1
  1260  1316  1320      1
  1261  1316  1321      1
  1262  1321  1322      1
  1263  1321  1323      1
  1264  1321  1324      1
  1265  1322  1325      1
  1266  1322  1326      1
  1267  1322  1327      1
  1268  1327  1328      1
  1269  1327  1329      1
  1270  1327  1330      1
  1271  1328  1331      1
  1272  1328  1332      1
  1273  1328  1333      1
  1274  1333  1334      1
  1275  1333  1335      1
  1276  1333  1336      1
  1277  1334  1337      1
  1278  1334  1338      1
  1279  1334  1339      1
  1280  1339  1340      1
  1281  1339  1341      1
  1282  1339  1342      1
  1283  1340  1343      1
  1284  1340  1344      1
  1285  1340  1345      1
  1286  1345  1346      1
  1287  1345  1347      1
  1288  1345  1348      1
  1289  1346  1349      1
  1290  1346  1350      1
  1291  1351  1352      1
  1292  1351  1353      1
  1293  1351  1354      1
  1294  1352  1355      1
  1295  1352  1356      1
  1296  1352  1357      1
  1297  1357  1358      1
  1298  1357  1359      1
  1299  1357  1360      1
  1300  1358  1361      1
  1301  1358  1362      1
  1302  1358  1363      1
  1303  1363  1364      1
  1304  1363  1365      1
  1305  1363  1366      1
  1306  1364  1367      1
  1307  1364  1368      1
  1308  1364  1369      1
  1309  1369  1370      1
  1310  1369  1371      1
  1311  1369  1372      1
  1312  1370  1373      1
  1313  1370  1374      1
  1314  1370  1375      1
  1315  1375  1376      1
  1316  1375  1377      1
  1317  1375  1378      1
  1318  1376  1379      1
  1319  1376  1380      1
  1320  1376  1381      1
  1321  1381  1382      1
  1322  1381  1383      1
  1323  1381  1384      1
  1324  1382  1385      1
  1325  1382  1386      1
  1326  1382  1387      1
  1327  1387  1388      1
  1328  1387  1389      1
  1329  1387  1390      1
  1330  1388  1391      1
  1331  1388  1392      1
  1332  1388  1393      1
  1333  1393  1394      1
  1334  1393  1395      1
  1335  1393  1396      1
  1336  1394  1397      1
  1337  1394  1398      1
  1338  1394  1399      1
  1339  1399  1400      1
  1340  1399  1401      1
  1341  1399  1402      1
  1342  1400  1403      1
  1343  1400  1404      1
  1344  1400  1405      1
  1345  1405  1406      1
  1346  1405  1407      1
  1347  1405  1408      1
  1348  1406  1409      1
  1349  1406  1410      1
  1350  1411  1412      1
  1351  1411  1413      1
  1352  1411  1414      1
  1353  1412  1415      1
  1354  1412  1416      1
  1355  1412  1417      1
  1356  1417  1418      1
  1357  1417  1419      1
  1358  1417  1420      1
  1359  1418  1421      1
  1360  1418  1422      1
  1361  1418  1423      1
  1362  1423  1424      1
  1363  1423  1425      1
  1364  1423  1426      1
  1365  1424  1427      1
  1366  1424  1428      1
  1367  1424  1429      1
  1368  1429  1430      1
  1369  1429  1431      1
  1370  1429  1432      1
  1371  1430  1433      1
  1372  1430  1434      1
  1373  1430  1435      1
  1374  1435  1436      1
  1375  1435  1437      1
  1376  1435  1438      1
  1377  1436  1439      1
  1378  1436  1440      1
  1379  1436  1441      1
  1380  1441  1442      1
  1381  1441  1443      1
  1382  1441  1444      1
  1383  1442  1445      1
  1384  1442  1446      1
  1385  1442  1447      1
  1386  1447  1448      1
  1387  1447  1449      1
  1388  1447  1450      1
  1389  1448  1451      1
  1390  1448  1452      1
  1391  1448  1453      1
  1392  1453  1454      1
  1393  1453  1455      1
  1394  1453  1456      1
  1395  1454  1457      1
  1396  1454  1458      1
  1397  1454  1459      1
  1398  1459  1460      1
  1399  1459  1461      1
  1400  1459  1462      1
  1401  1460  1463      1
  1402  1460  1464      1
  1403  1460  1465      1
  1404  1465  1466      1
  1405  1465  1467      1
  1406  1465  1468      1
  1407  1466  1469      1
  1408  1466  1470      1
  1409  1466  1471      1
  1410  1471  1472      1
  1411  1471  1473      1
  1412  1471  1474      1
  1413  1472  1475      1
  1414  1472  1476      1
  1415  1472  1477      1
  1416  1477  1478      1
  1417  1477  1479      1
  1418  1477  1480      1
  1419  1478  1481      1
  1420  1478  1482      1
  1421  1478  1483      1
  1422  1483  1484      1
  1423  1483  1485      1
  1424  1483  1486      1
  1425  1484  1487      1
  1426  1484  1488      1
  1427  1489  1490      1
  1428  1489  1491      1
  1429  1489  1492      1
  1430  1490  1493      1
  1431  1490  1494      1
  1432  1490  1495      1
  1433  1495  1496      1
  1434  1495  1497      1
  1435  1495  1498      1
  1436  1496  1499      1
  1437  1496  1500      1
  1438  1496  1501      1
  1439  1501  1502      1
  1440  1501  1503      1
  1441  1501  1504      1
  1442  1502  1505      1
  1443  1502  1506      1
  1444  1502  1507      1
  1445  1507  1508      1
  1446  1507  1509      1
  1447  1507  1510      1
  1448  1508  1511      1
  1449  1508  1512      1
  1450  1508  1513      1
  1451  1513  1514      1
  1452  1513  1515      1
  1453  1513  1516      1
  1454  1514  1517      1
  1455  1514  1518      1
  1456  1514  1519      1
  1457  1519  1520      1
  1458  1519  1521      1
  1459  1519  1522      1
  1460  1520  1523      1
  1461  1520  1524      1
  1462  1520  1525      1
  1463  1525  1526      1
  1464  1525  1527      1
  1465  1525  1528      1
  1466  1526  1529      1
  1467  1526  1530      1
  1468  1526  1531      1
  1469  1531  1532      1
  1470  1531  1533      1
  1471  1531  1534      1
  1472  1532  1535      1
  1473  1532  1536      1
  1474  1532  1537      1
  1475  1537  1538      1
  1476  1537  1539      1
  1477  1537  1540      1
  1478  1538  1541      1
  1479  1538  1542      1
  1480  1538  1543      1
  1481  1543  1544      1
  1482  1543  1545      1
  1483  1543  1546      1
  1484  1544  1547      1
  1485  1544  1548      1
  1486  1544  1549      1
  1487  1549  1550      1
  1488  1549  1551      1
  1489  1549  1552      1
  1490  1550  1553      1
  1491  1550  1554      1
  1492  1550  1555      1
  1493  1555  1556      1
  1494  1555  1557      1
  1495  1555  1558      1
  1496  1556  1559      1
  1497  1556  1560      1
  1498  1556  1561      1
  1499  1561  1562      1
  1500  1561  1563      1
  1501  1561  1564      1
  1502  1562  1565      1
  1503  1562  1566      1
  1504  1562  1567      1
  1505  1567  1568      1
  1506  1567  1569      1
  1507  1567  1570      1
  1508  1568  1571      1
  1509  1568  1572      1
  1510  1568  1573      1
  1511  1573  1574      1
  1512  1573  1575      1
  1513  1573  1576      1
  1514  1574  1577      1
  1515  1574  1578      1
  1516  1574  1579      1
  1517  1579  1580      1
  1518  1579  1581      1
  1519  1579  1582      1
  1520  1580  1583      1
  1521  1580  1584      1
  1522  1580  1585      1
  1523  1585  1586      1
  1524  1585  1587      1
  1525  1585  1588      1
  1526  1586  1589      1
  1527  1586  1590      1
  1528  1591  1592      1
  1529  1591  1593      1
  1530  1591  1594      1
  1531  1592  1595      1
  1532  1592  1596      1
  1533  1592  1597      1
  1534  1597  1598      1
  1535  1597  1599      1
  1536  1597  1600      1
  1537  1598  1601      1
  1538  1598  1602      1
  1539  1598  1603      1
  1540  1603  1604      1
  1541  1603  1605      1
  1542  1603  1606      1
  1543  1604  1607      1
  1544  1604  1608      1
  1545  1604  1609      1
  1546  1609  1610      1
  1547  1609  1611      1
  1548  1609  1612      1
  1549  1610  1613      1
  1550  1610  1614      1
  1551  1610  1615      1
  1552  1615  1616      1
  1553  1615  1617      1
  1554  1615  1618      1
  1555  1616  1619      1
  1556  1616  1620      1
  1557  1616  1621      1
  1558  1621  1622      1
  1559  1621  1623      1
  1560  1621  1624      1
  1561  1622  1625      1
  1562  1622  1626      1
  1563  1622  1627      1
  1564  1627  1628      1
  1565  1627  1629      1
  1566  1627  1630      1
  1567  1628  1631      1
  1568  1628  1632      1
  1569  1628  1633      1
  1570  1633  1634      1
  1571  1633  1635      1
  1572  1633  1636      1
  1573  1634  1637      1
  1574  1634  1638      1
  1575  1634  1639      1
  1576  1639  1640      1
  1577  1639  1641      1
  1578  1639  1642      1
  1579  1640  1643      1
  1580  1640  1644      1
  1581  1640  1645      1
  1582  1645  1646      1
  1583  1645  1647      1
  1584  1645  1648      1
  1585  1646  1649      1
  1586  1646  1650      1
  1587  1646  1651      1
  1588  1651  1652      1
  1589  1651  1653      1
  1590  1651  1654      1
  1591  1652  1655      1
  1592  1652  1656      1
  1593  1652  1657      1
  1594  1657  1658      1
  1595  1657  1659      1
  1596  1657  1660      1
  1597  1658  1661      1
  1598  1658  1662      1
  1599  1658  1663      1
  1600  1663  1664      1
  1601  1663  1665      1
  1602  1663  1666      1
  1603  1664  1667      1
  1604  1664  1668      1
  1605  1664  1669      1
  1606  1669  1670      1
  1607  1669  1671      1
  1608  1669  1672      1
  1609  1670  1673      1
  1610  1670  1674      1
  1611  1670  1675      1
  1612  1675  1676      1
  1613  1675  1677      1
  1614  1675  1678      1
  1615  1676  1679      1
  1616  1676  1680      1
  1617  1676  1681      1
  1618  1681  1682      1
  1619  1681  1683      1
  1620  1681  1684      1
  1621  1682  1685      1
  1622  1682  1686      1
  1623  1682  1687      1
  1624  1687  1688      1
  1625  1687  1689      1
  1626  1687  1690      1
  1627  1688  1691      1
  1628  1688  1692      1
  1629  1688  1693      1
  1630  1693  1694      1
  1631  1693  1695      1
  1632  1693  1696      1
  1633  1694  1697      1
  1634  1694  1698      1
  1635  1699  1700      1
  1636  1699  1701      1
  1637  1699  1702      1
  1638  1700  1703      1
  1639  1700  1704      1
  1640  1700  1705      1
  1641  1705  1706      1
  1642  1705  1707      1
  1643  1705  1708      1
  1644  1706  1709      1
  1645  1706  1710      1
  1646  1706  1711      1
  1647  1711  1712      1
  1648  1711  1713      1
  1649  1711  1714      1
  1650  1712  1715      1
  1651  1712  1716      1
  1652  1712  1717      1
  1653  1717  1718      1
  1654  1717  1719      1
  1655  1717  1720      1
  1656  1718  1721      1
  1657  1718  1722      1
  1658  1718  1723      1
  1659  1723  1724      1
  1660  1723  1725      1
  1661  1723  1726      1
  1662  1724  1727      1
  1663  1724  1728      1
  1664  1724  1729      1
  1665  1729  1730      1
  1666  1729  1731      1
  1667  1729  1732      1
  1668  1730  1733      1
  1669  1730  1734      1
  1670  1730  1735      1
  1671  1735  1736      1
  1672  1735  1737      1
  1673  1735  1738      1
  1674  1736  1739      1
  1675  1736  1740      1
  1676  1736  1741      1
  1677  1741  1742      1
  1678  1741  1743      1
  1679  1741  1744      1
  1680  1742  1745      1
  1681  1742  1746      1
  1682  1742  1747      1
  1683  1747  1748      1
  1684  1747  1749      1
  1685  1747  1750      1
  1686  1748  1751      1
  1687  1748  1752      1
  1688  1748  1753      1
  1689  1753  1754      1
  1690  1753  1755      1
  1691  1753  1756      1
  1692  1754  1757      1
  1693  1754  1758      1
  1694  1754  1759      1
  1695  1759  1760      1
  1696  1759  1761      1
  1697  1759  1762      1
  1698  1760  1763      1
  1699  1760  1764      1
  1700  1760  1765      1
  1701  1765  1766      1
  1702  1765  1767      1
  1703  1765  1768      1
  1704  1766  1769      1
  1705  1766  1770      1
  1706  1766  1771      1
  1707  1771  1772      1
  1708  1771  1773      1
  1709  1771  1774      1
  1710  1772  1775      1
  1711  1772  1776      1
  1712  1777  1778      1
  1713  1777  1779      1
  1714  1777  1780      1
  1715  1778  1781      1
  1716  1778  1782      1
  1717  1778  1783      1
  1718  1783  1784      1
  1719  1783  1785      1
  1720  1783  1786      1
  1721  1784  1787      1
  1722  1784  1788      1
  1723  1784  1789      1
  1724  1789  1790      1
  1725  1789  1791      1
  1726  1789  1792      1
  1727  1790  1793      1
  1728  1790  1794      1
  1729  1790  1795      1
  1730  1795  1796      1
  1731  1795  1797      1
  1732  1795  1798      1
  1733  1796  1799      1
  1734  1796  1800      1
  1735  1796  1801      1
  1736  1801  1802      1
  1737  1801  1803      1
  1738  1801  1804      1
  1739  1802  1805      1
  1740  1802  1806      1
  1741  1802  1807      1
  1742  1807  1808      1
  1743  1807  1809      1
  1744  1807  1810      1
  1745  1808  1811      1
  1746  1808  1812      1
  1747  1808  1813      1
  1748  1813  1814      1
  1749  1813  1815      1
  1750  1813  1816      1
  1751  1814  1817      1
  1752  1814  1818      1
  1753  1814  1819      1
  1754  1819  1820      1
  1755  1819  1821      1
  1756  1819  1822      1
  1757  1820  1823      1
  1758  1820  1824      1
  1759  1820  1825      1
  1760  1825  1826      1
  1761  1825  1827      1
  1762  1825  1828      1
  1763  1826  1829      1
  1764  1826  1830      1
  1765  1826  1831      1
  1766  1831  1832      1
  1767  1831  1833      1
  1768  1831  1834      1
  1769  1832  1835      1
  1770  1832  1836      1
  1771  1832  1837      1
  1772  1837  1838      1
  1773  1837  1839      1
  1774  1837  1840      1
  1775  1838  1841      1
  1776  1838  1842      1
  1777  1838  1843      1
  1778  1843  1844      1
  1779  1843  1845      1
  1780  1843  1846      1
  1781  1844  1847      1
  1782  1844  1848      1
  1783  1849  1850      1
  1784  1849  1851      1
  1785  1849  1852      1
  1786  1850  1853      1
  1787  1850  1854      1
  1788  1850  1855      1
  1789  1855  1856      1
  1790  1855  1857      1
  1791  1855  1858      1
  1792  1856  1859      1
  1793  1856  1860      1
  1794  1856  1861      1
  1795  1861  1862      1
  1796  1861  1863      1
  1797  1861  1864      1
  1798  1862  1865      1
  1799  1862  1866      1
  1800  1862  1867      1
  1801  1867  1868      1
  1802  1867  1869      1
  1803  1867  1870      1
  1804  1868  1871      1
  1805  1868  1872      1
  1806  1868  1873      1
  1807  1873  1874      1
  1808  1873  1875      1
  1809  1873  1876      1
  1810  1874  1877      1
  1811  1874  1878      1
  1812  1874  1879      1
  1813  1879  1880      1
  1814  1879  1881      1
  1815  1879  1882      1
  1816  1880  1883      1
  1817  1880  1884      1
  1818  1880  1885      1
  1819  1885  1886      1
  1820  1885  1887      1
  1821  1885  1888      1
  1822  1886  1889      1
  1823  1886  1890      1
  1824  1886  1891      1
  1825  1891  1892      1
  1826  1891  1893      1
  1827  1891  1894      1
  1828  1892  1895      1
  1829  1892  1896      1
  1830  1892  1897      1
  1831  1897  1898      1
  1832  1897  1899      1
  1833  1897  1900      1
  1834  1898  1901      1
  1835  1898  1902      1
  1836  1898  1903      1
  1837  1903  1904      1
  1838  1903  1905      1
  1839  1903  1906      1
  1840  1904  1907      1
  1841  1904  1908      1
  1842  1904  1909      1
  1843  1909  1910      1
  1844  1909  1911      1
  1845  1909  1912      1
  1846  1910  1913      1
  1847  1910  1914      1
  1848  1910  1915      1
  1849  1915  1916      1
  1850  1915  1917      1
  1851  1915  1918      1
  1852  1916  1919      1
  1853  1916  1920      1
  1854  1916  1921      1
  1855  1921  1922      1
  1856  1921  1923      1
  1857  1921  1924      1
  1858  1922  1925      1
  1859  1922  1926      1
  1860  1922  1927      1
  1861  1927  1928      1
  1862  1927  1929      1
  1863  1927  1930      1
  1864  1928  1931      1
  1865  1928  1932      1
  1866  1928  1933      1
  1867  1933  1934      1
  1868  1933  1935      1
  1869  1933  1936      1
  1870  1934  1937      1
  1871  1934  1938      1
  1872  1934  1939      1
  1873  1939  1940      1
  1874  1939  1941      1
  1875  1939  1942      1
  1876  1940  1943      1
  1877  1940  1944      1
  1878  1940  1945      1
  1879  1945  1946      1
  1880  1945  1947      1
  1881  1945  1948      1
  1882  1946  1949      1
  1883  1946  1950      1
  1884  1946  1951      1
  1885  1951  1952      1
  1886  1951  1953      1
  1887  1951  1954      1
  1888  1952  1955      1
  1889  1952  1956      1
  1890  1952  1957      1
  1891  1957  1958      1
  1892  1957  1959      1
  1893  1957  1960      1
  1894  1958  1961      1
  1895  1958  1962      1
  1896  1958  1963      1
  1897  1963  1964      1
  1898  1963  1965      1
  1899  1963  1966      1
  1900  1964  1967      1
  1901  1964  1968      1
  1902  1964  1969      1
  1903  1969  1970      1
  1904  1969  1971      1
  1905  1969  1972      1
  1906  1970  1973      1
  1907  1970  1974      1
  1908  1970  1975      1
  1909  1975  1976      1
  1910  1975  1977      1
  1911  1975  1978      1
  1912  1976  1979      1
  1913  1976  1980      1
  1914  1976  1981      1
  1915  1981  1982      1
  1916  1981  1983      1
  1917  1981  1984      1
  1918  1982  1985      1
  1919  1982  1986      1
  1920  1982  1987      1
  1921  1987  1988      1
  1922  1987  1989      1
  1923  1987  1990      1
  1924  1988  1991      1
  1925  1988  1992      1
  1926  1993  1994      1
  1927  1993  1995      1
  1928  1993  1996      1
  1929  1994  1997      1
  1930  1994  1998      1
  1931  1994  1999      1
  1932  1999  2000      1
  1933  1999  2001      1
  1934  1999  2002      1
  1935  2000  2003      1
  1936  2000  2004      1
  1937  2000  2005      1
  1938  2005  2006      1
  1939  2005  2007      1
  1940  2005  2008      1
  1941  2006  2009      1
  1942  2006  2010      1
  1943  2006  2011      1
  1944  2011  2012      1
  1945  2011  2013      1
  1946  2011  2014      1
  1947  2012  2015      1
  1948  2012  2016      1
  1949  2012  2017      1
  1950  2017  2018      1
  1951  2017  2019      1
  1952  2017  2020      1
  1953  2018  2021      1
  1954  2018  2022      1
  1955  2018  2023      1
  1956  2023  2024      1
  1957  2023  2025      1
  1958  2023  2026      1
  1959  2024  2027      1
  1960  2024  2028      1
  1961  2024  2029      1
  1962  2029  2030      1
  1963  2029  2031      1
  1964  2029  2032      1
  1965  2030  2033      1
  1966  2030  2034      1
  1967  2030  2035      1
  1968  2035  2036      1
  1969  2035  2037      1
  1970  2035  2038      1
  1971  2036  2039      1
  1972  2036  2040      1
  1973  2036  2041      1
  1974  2041  2042      1
  1975  2041  2043      1
  1976  2041  2044      1
  1977  2042  2045      1
  1978  2042  2046      1
  1979  2042  2047      1
  1980  2047  2048      1
  1981  2047  2049      1
  1982  2047  2050      1
  1983  2048  2051      1
  1984  2048  2052      1
  1985  2048  2053      1
  1986  2053  2054      1
  1987  2053  2055      1
  1988  2053  2056      1
  1989  2054  2057      1
  1990  2054  2058      1
  1991  2054  2059      1
  1992  2059  2060      1
  1993  2059  2061      1
  1994  2059  2062      1
  1995  2060  2063      1
  1996  2060  2064      1
  1997  2060  2065      1
  1998  2065  2066      1
  1999  2065  2067      1
  2000  2065  2068      1
  2001  2066  2069      1
  2002  2066  2070      1
  2003  2071  2072      1
  2004  2071  2073      1
  2005  2071  2074      1
  2006  2072  2075      1
  2007  2072  2076      1
  2008  2072  2077      1
  2009  2077  2078      1
  2010  2077  2079      1
  2011  2077  2080      1
  2012  2078  2081      1
  2013  2078  2082      1
  2014  2078  2083      1
  2015  2083  2084      1
  2016  2083  2085      1
  2017  2083  2086      1
  2018  2084  2087      1
  2019  2084  2088      1
  2020  2084  2089      1
  2021  2089  2090      1
  2022  2089  2091      1
  2023  2089  2092      1
  2024  2090  2093      1
  2025  2090  2094      1
  2026  2090  2095      1
  2027  2095  2096      1
  2028  2095  2097      1
  2029  2095  2098      1
  2030  2096  2099      1
  2031  2096  2100      1
  2032  2096  2101      1
  2033  2101  2102      1
  2034  2101  2103      1
  2035  2101  2104      1
  2036  2102  2105      1
  2037  2102  2106      1
  2038  2102  2107      1
  2039  2107  2108      1
  2040  2107  2109      1
  2041  2107  2110      1
  2042  2108  2111      1
  2043  2108  2112      1
  2044  2108  2113      1
  2045  2113  2114      1
  2046  2113  2115      1
  2047  2113  2116      1
  2048  2114  2117      1
  2049  2114  2118      1
  2050  2114  2119      1
  2051  2119  2120      1
  2052  2119  2121      1
  2053  2119  2122      1
  2054  2120  2123      1
  2055  2120  2124      1
  2056  2120  2125      1
  2057  2125  2126      1
  2058  2125  2127      1
  2059  2125  2128      1
  2060  2126  2129      1
  2061  2126  2130      1
  2062  2126  2131      1
  2063  2131  2132      1
  2064  2131  2133      1
  2065  2131  2134      1
  2066  2132  2135      1
  2067  2132  2136      1
  2068  2132  2137      1
  2069  2137  2138      1
  2070  2137  2139      1
  2071  2137  2140      1
  2072  2138  2141      1
  2073  2138  2142      1
  2074  2138  2143      1
  2075  2143  2144      1
  2076  2143  2145      1
  2077  2143  2146      1
  2078  2144  2147      1
  2079  2144  2148      1
  2080  2149  2150      1
  2081  2149  2151      1
  2082  2149  2152      1
  2083  2150  2153      1
  2084  2150  2154      1
  2085  2150  2155      1
  2086  2155  2156      1
  2087  2155  2157      1
  2088  2155  2158      1
  2089  2156  2159      1
  2090  2156  2160      1
  2091  2156  2161      1
  2092  2161  2162      1
  2093  2161  2163      1
  2094  2161  2164      1
  2095  2162  2165      1
  2096  2162  2166      1
  2097  2162  2167      1
  2098  2167  2168      1
  2099  2167  2169      1
  2100  2167  2170      1
  2101  2168  2171      1
  2102  2168  2172      1
  2103  2168  2173      1
  2104  2173  2174      1
  2105  2173  2175      1
  2106  2173  2176      1
  2107  2174  2177      1
  2108  2174  2178      1
  2109  2174  2179      1
  2110  2179  2180      1
  2111  2179  2181      1
  2112  2179  2182      1
  2113  2180  2183      1
  2114  2180  2184      1
  2115  2180  2185      1
  2116  2185  2186      1
  2117  2185  2187      1
  2118  2185  2188      1
  2119  2186  2189      1
  2120  2186  2190      1
  2121  2186  2191      1
  2122  2191  2192      1
  2123  2191  2193      1
  2124  2191  2194      1
  2125  2192  2195      1
  2126  2192  2196      1
  2127  2192  2197      1
  2128  2197  2198      1
  2129  2197  2199      1
  2130  2197  2200      1
  2131  2198  2201      1
  2132  2198  2202      1
  2133  2198  2203      1
  2134  2203  2204      1
  2135  2203  2205      1
  2136  2203  2206      1
  2137  2204  2207      1
  2138  2204  2208      1
  2139  2204  2209      1
  2140  2209  2210      1
  2141  2209  2211      1
  2142  2209  2212      1
  2143  2210  2213      1
  2144  2210  2214      1
  2145  2210  2215      1
  2146  2215  2216      1
  2147  2215  2217      1
  2148  2215  2218      1
  2149  2216  2219      1
  2150  2216  2220      1
  2151  2216  2221      1
  2152  2221  2222      1
  2153  2221  2223      1
  2154  2221  2224      1
  2155  2222  2225      1
  2156  2222  2226      1
  2157  2222  2227      1
  2158  2227  2228      1
  2159  2227  2229      1
  2160  2227  2230      1
  2161  2228  2231      1
  2162  2228  2232      1
  2163  2233  2234      1
  2164  2233  2235      1
  2165  2233  2236      1
  2166  2234  2237      1
  2167  2234  2238      1
  2168  2234  2239      1
  2169  2239  2240      1
  2170  2239  2241      1
  2171  2239  2242      1
  2172  2240  2243      1
  2173  2240  2244      1
  2174  2240  2245      1
  2175  2245  2246      1
  2176  2245  2247      1
  2177  2245  2248      1
  2178  2246  2249      1
  2179  2246  2250      1
  2180  2246  2251      1
  2181  2251  2252      1
  2182  2251  2253      1
  2183  2251  2254      1
  2184  2252  2255      1
  2185  2252  2256      1
  2186  2252  2257      1
  2187  2257  2258      1
  2188  2257  2259      1
  2189  2257  2260      1
  2190  2258  2261      1
  2191  2258  2262      1
  2192  2258  2263      1
  2193  2263  2264      1
  2194  2263  2265      1
  2195  2263  2266      1
  2196  2264  2267      1
  2197  2264  2268      1
  2198  2264  2269      1
  2199  2269  2270      1
  2200  2269  2271      1
  2201  2269  2272      1
  2202  2270  2273      1
  2203  2270  2274      1
  2204  2270  2275      1
  2205  2275  2276      1
  2206  2275  2277      1
  2207  2275  2278      1
  2208  2276  2279      1
  2209  2276  2280      1
  2210  2276  2281      1
  2211  2281  2282      1
  2212  2281  2283      1
  2213  2281  2284      1
  2214  2282  2285      1
  2215  2282  2286      1
  2216  2282  2287      1
  2217  2287  2288      1
  2218  2287  2289      1
  2219  2287  2290      1
  2220  2288  2291      1
  2221  2288  2292      1
  2222  2288  2293      1
  2223  2293  2294      1
  2224  2293  2295      1
  2225  2293  2296      1
  2226  2294  2297      1
  2227  2294  2298      1
  2228  2294  2299      1
  2229  2299  2300      1
  2230  2299  2301      1
  2231  2299  2302      1
  2232  2300  2303      1
  2233  2300  2304      1
  2234  2300  2305      1
  2235  2305  2306      1
  2236  2305  2307      1
  2237  2305  2308      1
  2238  2306  2309      1
  2239  2306  2310      1
  2240  2306  2311      1
  2241  2311  2312      1
  2242  2311  2313      1
  2243  2311  2314      1
  2244  2312  2315      1
  2245  2312  2316      1
  2246  2312  2317      1
  2247  2317  2318      1
  2248  2317  2319      1
  2249  2317  2320      1
  2250  2318  2321      1
  2251  2318  2322      1
  2252  2318  2323      1
  2253  2323  2324      1
  2254  2323  2325      1
  2255  2323  2326      1
  2256  2324  2327      1
  2257  2324  2328      1
  2258  2324  2329      1
  2259  2329  2330      1
  2260  2329  2331      1
  2261  2329  2332      1
  2262  2330  2333      1
  2263  2330  2334      1
  2264  2330  2335      1
  2265  2335  2336      1
  2266  2335  2337      1
  2267  2335  2338      1
  2268  2336  2339      1
  2269  2336  2340      1
  2270  2336  2341      1
  2271  2341  2342      1
  2272  2341  2343      1
  2273  2341  2344      1
  2274  2342  2345      1
  2275  2342  2346      1
  2276  2342  2347      1
  2277  2347  2348      1
  2278  2347  2349      1
  2279  2347  2350      1
  2280  2348  2351      1
  2281  2348  2352      1
  2282  2348  2353      1
  2283  2353  2354      1
  2284  2353  2355      1
  2285  2353  2356      1
  2286  2354  2357      1
  2287  2354  2358      1
  2288  2354  2359      1
  2289  2359  2360      1
  2290  2359  2361      1
  2291  2359  2362      1
  2292  2360  2363      1
  2293  2360  2364      1
  2294  2360  2365      1
  2295  2365  2366      1
  2296  2365  2367      1
  2297  2365  2368      1
  2298  2366  2369      1
  2299  2366  2370      1
  2300  2366  2371      1
  2301  2371  2372      1
  2302  2371  2373      1
  2303  2371  2374      1
  2304  2372  2375      1
  2305  2372  2376      1
  2306  2372  2377      1
  2307  2377  2378      1
  2308  2377  2379      1
  2309  2377  2380      1
  2310  2378  2381      1
  2311  2378  2382      1
  2312  2378  2383      1
  2313  2383  2384      1
  2314  2383  2385      1
  2315  2383  2386      1
  2316  2384  2387      1
  2317  2384  2388      1
  2318  2384  2389      1
  2319  2389  2390      1
  2320  2389  2391      1
  2321  2389  2392      1
  2322  2390  2393      1
  2323  2390  2394      1
  2324  2390  2395      1
  2325  2395  2396      1
  2326  2395  2397      1
  2327  2395  2398      1
  2328  2396  2399      1
  2329  2396  2400      1
  2330  2396  2401      1
  2331  2401  2402      1
  2332  2401  2403      1
  2333  2401  2404      1
  2334  2402  2405      1
  2335  2402  2406      1
  2336  2402  2407      1
  2337  2407  2408      1
  2338  2407  2409      1
  2339  2407  2410      1
  2340  2408  2411      1
  2341  2408  2412      1
  2342  2413  2414      1
  2343  2413  2415      1
  2344  2413  2416      1
  2345  2414  2417      1
  2346  2414  2418      1
  2347  2414  2419      1
  2348  2419  2420      1
  2349  2419  2421      1
  2350  2419  2422      1
  2351  2420  2423      1
  2352  2420  2424      1
  2353  2420  2425      1
  2354  2425  2426      1
  2355  2425  2427      1
  2356  2425  2428      1
  2357  2426  2429      1
  2358  2426  2430      1
  2359  2426  2431      1
  2360  2431  2432      1
  2361  2431  2433      1
  2362  2431  2434      1
  2363  2432  2435      1
  2364  2432  2436      1
  2365  2432  2437      1
  2366  2437  2438      1
  2367  2437  2439      1
  2368  2437  2440      1
  2369  2438  2441      1
  2370  2438  2442      1
  2371  2438  2443      1
  2372  2443  2444      1
  2373  2443  2445      1
  2374  2443  2446      1
  2375  2444  2447      1
  2376  2444  2448      1
  2377  2444  2449      1
  2378  2449  2450      1
  2379  2449  2451      1
  2380  2449  2452      1
  2381  2450  2453      1
  2382  2450  2454      1
  2383  2450  2455      1
  2384  2455  2456      1
  2385  2455  2457      1
  2386  2455  2458      1
  2387  2456  2459      1
  2388  2456  2460      1
  2389  2456  2461      1
  2390  2461  2462      1
  2391  2461  2463      1
  2392  2461  2464      1
  2393  2462  2465      1
  2394  2462  2466      1
  2395  2462  2467      1
  2396  2467  2468      1
  2397  2467  2469      1
  2398  2467  2470      1
  2399  2468  2471      1
  2400  2468  2472      1
  2401  2468  2473      1
  2402  2473  2474      1
  2403  2473  2475      1
  2404  2473  2476      1
  2405  2474  2477      1
  2406  2474  2478      1
  2407  2479  2480      1
  2408  2479  2481      1
  2409  2479  2482      1
  2410  2480  2483      1
  2411  2480  2484      1
  2412  2480  2485      1
  2413  2485  2486      1
  2414  2485  2487      1
  2415  2485  2488      1
  2416  2486  2489      1
  2417  2486  2490      1
  2418  2486  2491      1
  2419  2491  2492      1
  2420  2491  2493      1
  2421  2491  2494      1
  2422  2492  2495      1
  2423  2492  2496      1
  2424  2492  2497      1
  2425  2497  2498      1
  2426  2497  2499      1
  2427  2497  2500      1
  2428  2498  2501      1
  2429  2498  2502      1
  2430  2498  2503      1
  2431  2503  2504      1
  2432  2503  2505      1
  2433  2503  2506      1
  2434  2504  2507      1
  2435  2504  2508      1
  2436  2504  2509      1
  2437  2509  2510      1
  2438  2509  2511      1
  2439  2509  2512      1
  2440  2510  2513      1
  2441  2510  2514      1
  2442  2510  2515      1
  2443  2515  2516      1
  2444  2515  2517      1
  2445  2515  2518      1
  2446  2516  2519      1
  2447  2516  2520      1
  2448  2516  2521      1
  2449  2521  2522      1
  2450  2521  2523      1
  2451  2521  2524      1
  2452  2522  2525      1
  2453  2522  2526      1
  2454  2522  2527      1
  2455  2527  2528      1
  2456  2527  2529      1
  2457  2527  2530      1
  2458  2528  2531      1
  2459  2528  2532      1
  2460  2528  2533      1
  2461  2533  2534      1
  2462  2533  2535      1
  2463  2533  2536      1
  2464  2534  2537      1
  2465  2534  2538      1
  2466  2534  2539      1
  2467  2539  2540      1
  2468  2539  2541      1
  2469  2539  2542      1
  2470  2540  2543      1
  2471  2540  2544      1
  2472  2540  2545      1
  2473  2545  2546      1
  2474  2545  2547      1
  2475  2545  2548      1
  2476  2546  2549      1
  2477  2546  2550      1
  2478  2546  2551      1
  2479  2551  2552      1
  2480  2551  2553      1
  2481  2551  2554      1
  2482  2552  2555      1
  2483  2552  2556      1
  2484  2552  2557      1
  2485  2557  2558      1
  2486  2557  2559      1
  2487  2557  2560      1
  2488  2558  2561      1
  2489  2558  2562      1
  2490  2558  2563      1
  2491  2563  2564      1
  2492  2563  2565      1
  2493  2563  2566      1
  2494  2564  2567      1
  2495  2564  2568      1
  2496  2564  2569      1
  2497  2569  2570      1
  2498  2569  2571      1
  2499  2569  2572      1
  2500  2570  2573      1
  2501  2570  2574      1
  2502  2575  2576      1
  2503  2575  2577      1
  2504  2575  2578      1
  2505  2576  2579      1
  2506  2576  2580      1
  2507  2576  2581      1
  2508  2581  2582      1
  2509  2581  2583      1
  2510  2581  2584      1
  2511  2582  2585      1
  2512  2582  2586      1
  2513  2582  2587      1
  2514  2587  2588      1
  2515  2587  2589      1
  2516  2587  2590      1
  2517  2588  2591      1
  2518  2588  2592      1
  2519  2588  2593      1
  2520  2593  2594      1
  2521  2593  2595      1
  2522  2593  2596      1
  2523  2594  2597      1
  2524  2594  2598      1
  2525  2594  2599      1
  2526  2599  2600      1
  2527  2599  2601      1
  2528  2599  2602      1
  2529  2600  2603      1
  2530  2600  2604      1
  2531  2600  2605      1
  2532  2605  2606      1
  2533  2605  2607      1
  2534  2605  2608      1
  2535  2606  2609      1
  2536  2606  2610      1
  2537  2606  2611      1
  2538  2611  2612      1
  2539  2611  2613      1
  2540  2611  2614      1
  2541  2612  2615      1
  2542  2612  2616      1
  2543  2612  2617      1
  2544  2617  2618      1
  2545  2617  2619      1
  2546  2617  2620      1
  2547  2618  2621      1
  2548  2618  2622      1
  2549  2618  2623      1
  2550  2623  2624      1
  2551  2623  2625      1
  2552  2623  2626      1
  2553  2624  2627      1
  2554  2624  2628      1
  2555  2624  2629      1
  2556  2629  2630      1
  2557  2629  2631      1
  2558  2629  2632      1
  2559  2630  2633      1
  2560  2630  2634      1
  2561  2630  2635      1
  2562  2635  2636      1
  2563  2635  2637      1
  2564  2635  2638      1
  2565  2636  2639      1
  2566  2636  2640      1
  2567  2636  2641      1
  2568  2641  2642      1
  2569  2641  2643      1
  2570  2641  2644      1
  2571  2642  2645      1
  2572  2642  2646      1
  2573  2642  2647      1
  2574  2647  2648      1
  2575  2647  2649      1
  2576  2647  2650      1
  2577  2648  2651      1
  2578  2648  2652      1
  2579  2648  2653      1
  2580  2653  2654      1
  2581  2653  2655      1
  2582  2653  2656      1
  2583  2654  2657      1
  2584  2654  2658      1
  2585  2654  2659      1
  2586  2659  2660      1
  2587  2659  2661      1
  2588  2659  2662      1
  2589  2660  2663      1
  2590  2660  2664      1
  2591  2660  2665      1
  2592  2665  2666      1
  2593  2665  2667      1
  2594  2665  2668      1
  2595  2666  2669      1
  2596  2666  2670      1
  2597  2671  2672      1
  2598  2671  2673      1
  2599  2671  2674      1
  2600  2672  2675      1
  2601  2672  2676      1
  2602  2672  2677      1
  2603  2677  2678      1
  2604  2677  2679      1
  2605  2677  2680      1
  2606  2678  2681      1
  2607  2678  2682      1
  2608  2678  2683      1
  2609  2683  2684      1
  2610  2683  2685      1
  2611  2683  2686      1
  2612  2684  2687      1
  2613  2684  2688      1
  2614  2684  2689      1
  2615  2689  2690      1
  2616  2689  2691      1
  2617  2689  2692      1
  2618  2690  2693      1
  2619  2690  2694      1
  2620  2690  2695      1
  2621  2695  2696      1
  2622  2695  2697      1
  2623  2695  2698      1
  2624  2696  2699      1
  2625  2696  2700      1
  2626  2696  2701      1
  2627  2701  2702      1
  2628  2701  2703      1
  2629  2701  2704      1
  2630  2702  2705      1
  2631  2702  2706      1
  2632  2702  2707      1
  2633  2707  2708      1
  2634  2707  2709      1
  2635  2707  2710      1
  2636  2708  2711      1
  2637  2708  2712      1
  2638  2708  2713      1
  2639  2713  2714      1
  2640  2713  2715      1
  2641  2713  2716      1
  2642  2714  2717      1
  2643  2714  2718      1
  2644  2714  2719      1
  2645  2719  2720      1
  2646  2719  2721      1
  2647  2719  2722      1
  2648  2720  2723      1
  2649  2720  2724      1
  2650  2720  2725      1
  2651  2725  2726      1
  2652  2725  2727      1
  2653  2725  2728      1
  2654  2726  2729      1
  2655  2726  2730      1
  2656  2726  2731      1
  2657  2731  2732      1
  2658  2731  2733      1
  2659  2731  2734      1
  2660  2732  2735      1
  2661  2732  2736      1
  2662  2732  2737      1
  2663  2737  2738      1
  2664  2737  2739      1
  2665  2737  2740      1
  2666  2738  2741      1
  2667  2738  2742      1
  2668  2738  2743      1
  2669  2743  2744      1
  2670  2743  2745      1
  2671  2743  2746      1
  2672  2744  2747      1
  2673  2744  2748      1
  2674  2744  2749      1
  2675  2749  2750      1
  2676  2749  2751      1
  2677  2749  2752      1
  2678  2750  2753      1
  2679  2750  2754      1
  2680  2750  2755      1
  2681  2755  2756      1
  2682  2755  2757      1
  2683  2755  2758      1
  2684  2756  2759      1
  2685  2756  2760      1
  2686  2756  2761      1
  2687  2761  2762      1
  2688  2761  2763      1
  2689  2761  2764      1
  2690  2762  2765      1
  2691  2762  2766      1
  2692  2762  2767      1
  2693  2767  2768      1
  2694  2767  2769      1
  2695  2767  2770      1
  2696  2768  2771      1
  2697  2768  2772      1
  2698  2773  2774      1
  2699  2773  2775      1
  2700  2773  2776      1
  2701  2774  2777      1
  2702  2774  2778      1
  2703  2774  2779      1
  2704  2779  2780      1
  2705  2779  2781      1
  2706  2779  2782      1
  2707  2780  2783      1
  2708  2780  2784      1
  2709  2780  2785      1
  2710  2785  2786      1
  2711  2785  2787      1
  2712  2785  2788      1
  2713  2786  2789      1
  2714  2786  2790      1
  2715  2786  2791      1
  2716  2791  2792      1
  2717  2791  2793      1
  2718  2791  2794      1
  2719  2792  2795      1
  2720  2792  2796      1
  2721  2792  2797      1
  2722  2797  2798      1
  2723  2797  2799      1
  2724  2797  2800      1
  2725  2798  2801      1
  2726  2798  2802      1
  2727  2798  2803      1
  2728  2803  2804      1
  2729  2803  2805      1
  2730  2803  2806      1
  2731  2804  2807      1
  2732  2804  2808      1
  2733  2804  2809      1
  2734  2809  2810      1
  2735  2809  2811      1
  2736  2809  2812      1
  2737  2810  2813      1
  2738  2810  2814      1
  2739  2810  2815      1
  2740  2815  2816      1
  2741  2815  2817      1
  2742  2815  2818      1
  2743  2816  2819      1
  2744  2816  2820      1
  2745  2816  2821      1
  2746  2821  2822      1
  2747  2821  2823      1
  2748  2821  2824      1
  2749  2822  2825      1
  2750  2822  2826      1
  2751  2822  2827      1
  2752  2827  2828      1
  2753  2827  2829      1
  2754  2827  2830      1
  2755  2828  2831      1
  2756  2828  2832      1
  2757  2828  2833      1
  2758  2833  2834      1
  2759  2833  2835      1
  2760  2833  2836      1
  2761  2834  2837      1
  2762  2834  2838      1
  2763  2834  2839      1
  2764  2839  2840      1
  2765  2839  2841      1
  2766  2839  2842      1
  2767  2840  2843      1
  2768  2840  2844      1
  2769  2840  2845      1
  2770  2845  2846      1
  2771  2845  2847      1
  2772  2845  2848      1
  2773  2846  2849      1
  2774  2846  2850      1
  2775  2846  2851      1
  2776  2851  2852      1
  2777  2851  2853      1
  2778  2851  2854      1
  2779  2852  2855      1
  2780  2852  2856      1
  2781  2852  2857      1
  2782  2857  2858      1
  2783  2857  2859      1
  2784  2857  2860      1
  2785  2858  2861      1
  2786  2858  2862      1
  2787  2858  2863      1
  2788  2863  2864      1
  2789  2863  2865      1
  2790  2863  2866      1
  2791  2864  2867      1
  2792  2864  2868      1
  2793  2864  2869      1
  2794  2869  2870      1
  2795  2869  2871      1
  2796  2869  2872      1
  2797  2870  2873      1
  2798  2870  2874      1
  2799  2870  2875      1
  2800  2875  2876      1
  2801  2875  2877      1
  2802  2875  2878      1
  2803  2876  2879      1
  2804  2876  2880      1
  2805  2876  2881      1
  2806  2881  2882      1
  2807  2881  2883      1
  2808  2881  2884      1
  2809  2882  2885      1
  2810  2882  2886      1
  2811  2882  2887      1
  2812  2887  2888      1
  2813  2887  2889      1
  2814  2887  2890      1
  2815  2888  2891      1
  2816  2888  2892      1
  2817  2893  2894      1
  2818  2893  2895      1
  2819  2893  2896      1
  2820  2894  2897      1
  2821  2894  2898      1
  2822  2894  2899      1
  2823  2899  2900      1
  2824  2899  2901      1
  2825  2899  2902      1
  2826  2900  2903      1
  2827  2900  2904      1
  2828  2900  2905      1
  2829  2905  2906      1
  2830  2905  2907      1
  2831  2905  2908      1
  2832  2906  2909      1
  2833  2906  2910      1
  2834  2906  2911      1
  2835  2911  2912      1
  2836  2911  2913      1
  2837  2911  2914      1
  2838  2912  2915      1
  2839  2912  2916      1
  2840  2912  2917      1
  2841  2917  2918      1
  2842  2917  2919      1
  2843  2917  2920      1
  2844  2918  2921      1
  2845  2918  2922      1
  2846  2918  2923      1
  2847  2923  2924      1
  2848  2923  2925      1
  2849  2923  2926      1
  2850  2924  2927      1
  2851  2924  2928      1
  2852  2924  2929      1
  2853  2929  2930      1
  2854  2929  2931      1
  2855  2929  2932      1
  2856  2930  2933      1
  2857  2930  2934      1
  2858  2930  2935      1
  2859  2935  2936      1
  2860  2935  2937      1
  2861  2935  2938      1
  2862  2936  2939      1
  2863  2936  2940      1
  2864  2936  2941      1
  2865  2941  2942      1
  2866  2941  2943      1
  2867  2941  2944      1
  2868  2942  2945      1
  2869  2942  2946      1
  2870  2942  2947      1
  2871  2947  2948      1
  2872  2947  2949      1
  2873  2947  2950      1
  2874  2948  2951      1
  2875  2948  2952      1
  2876  2948  2953      1
  2877  2953  2954      1
  2878  2953  2955      1
  2879  2953  2956      1
  2880  2954  2957      1
  2881  2954  2958      1
  2882  2954  2959      1
  2883  2959  2960      1
  2884  2959  2961      1
  2885  2959  2962      1
  2886  2960  2963      1
  2887  2960  2964      1
  2888  2960  2965      1
  2889  2965  2966      1
  2890  2965  2967      1
  2891  2965  2968      1
  2892  2966  2969      1
  2893  2966  2970      1
  2894  2966  2971      1
  2895  2971  2972      1
  2896  2971  2973      1
  2897  2971  2974      1
  2898  2972  2975      1
  2899  2972  2976      1
  2900  2977  2978      1
  2901  2977  2979      1
  2902  2977  2980      1
  2903  2978  2981      1
  2904  2978  2982      1
  2905  2978  2983      1
  2906  2983  2984      1
  2907  2983  2985      1
  2908  2983  2986      1
  2909  2984  2987      1
  2910  2984  2988      1
  2911  2984  2989      1
  2912  2989  2990      1
  2913  2989  2991      1
  2914  2989  2992      1
  2915  2990  2993      1
  2916  2990  2994      1
  2917  2990  2995      1
  2918  2995  2996      1
  2919  2995  2997      1
  2920  2995  2998      1
  2921  2996  2999      1
  2922  2996  3000      1
  2923  2996  3001      1
  2924  3001  3002      1
  2925  3001  3003      1
  2926  3001  3004      1
  2927  3002  3005      1
  2928  3002  3006      1
  2929  3002  3007      1
  2930  3007  3008      1
  2931  3007  3009      1
  2932  3007  3010      1
  2933  3008  3011      1
  2934  3008  3012      1
  2935  3008  3013      1
  2936  3013  3014      1
  2937  3013  3015      1
  2938  3013  3016      1
  2939  3014  3017      1
  2940  3014  3018      1
  2941  3014  3019      1
  2942  3019  3020      1
  2943  3019  3021      1
  2944  3019  3022      1
  2945  3020  3023      1
  2946  3020  3024      1
  2947  3020  3025      1
  2948  3025  3026      1
  2949  3025  3027      1
  2950  3025  3028      1
  2951  3026  3029      1
  2952  3026  3030      1
  2953  3026  3031      1
  2954  3031  3032      1
  2955  3031  3033      1
  2956  3031  3034      1
  2957  3032  3035      1
  2958  3032  3036      1
  2959  3032  3037      1
  2960  3037  3038      1
  2961  3037  3039      1
  2962  3037  3040      1
  2963  3038  3041      1
  2964  3038  3042      1
  2965  3038  3043      1
  2966  3043  3044      1
  2967  3043  3045      1
  2968  3043  3046      1
  2969  3044  3047      1
  2970  3044  3048      1
  2971  3044  3049      1
  2972  3049  3050      1
  2973  3049  3051      1
  2974  3049  3052      1
  2975  3050  3053      1
  2976  3050  3054      1
  2977  3050  3055      1
  2978  3055  3056      1
  2979  3055  3057      1
  2980  3055  3058      1
  2981  3056  3059      1
  2982  3056  3060      1
  2983  3056  3061      1
  2984  3061  3062      1
  2985  3061  3063      1
  2986  3061  3064      1
  2987  3062  3065      1
  2988  3062  3066      1
  2989  3062  3067      1
  2990  3067  3068      1
  2991  3067  3069      1
  2992  3067  3070      1
  2993  3068  3071      1
  2994  3068  3072      1
  2995  3068  3073      1
  2996  3073  3074      1
  2997  3073  3075      1
  2998  3073  3076      1
  2999  3074  3077      1
  3000  3074  3078      1
  3001  3079  3080      1
  3002  3079  3081      1
  3003  3079  3082      1
  3004  3080  3083      1
  3005  3080  3084      1
  3006  3080  3085      1
  3007  3085  3086      1
  3008  3085  3087      1
  3009  3085  3088      1
  3010  3086  3089      1
  3011  3086  3090      1
  3012  3086  3091      1
  3013  3091  3092      1
  3014  3091  3093      1
  3015  3091  3094      1
  3016  3092  3095      1
  3017  3092  3096      1
  3018  3092  3097      1
  3019  3097  3098      1
  3020  3097  3099      1
  3021  3097  3100      1
  3022  3098  3101      1
  3023  3098  3102      1
  3024  3098  3103      1
  3025  3103  3104      1
  3026  3103  3105      1
  3027  3103  3106      1
  3028  3104  3107      1
  3029  3104  3108      1
  3030  3104  3109      1
  3031  3109  3110      1
  3032  3109  3111      1
  3033  3109  3112      1
  3034  3110  3113      1
  3035  3110  3114      1
  3036  3110  3115      1
  3037  3115  3116      1
  3038  3115  3117      1
  3039  3115  3118      1
  3040  3116  3119      1
  3041  3116  3120      1
  3042  3116  3121      1
  3043  3121  3122      1
  3044  3121  3123      1
  3045  3121  3124      1
  3046  3122  3125      1
  3047  3122  3126      1
  3048  3122  3127      1
  3049  3127  3128      1
  3050  3127  3129      1
  3051  3127  3130      1
  3052  3128  3131      1
  3053  3128  3132      1
  3054  3128  3133      1
  3055  3133  3134      1
  3056  3133  3135      1
  3057  3133  3136      1
  3058  3134  3137      1
  3059  3134  3138      1
  3060  3134  3139      1
  3061  3139  3140      1
  3062  3139  3141      1
  3063  3139  3142      1
  3064  3140  3143      1
  3065  3140  3144      1
  3066  3140  3145      1
  3067  3145  3146      1
  3068  3145  3147      1
  3069  3145  3148      1
  3070  3146  3149      1
  3071  3146  3150      1
  3072  3146  3151      1
  3073  3151  3152      1
  3074  3151  3153      1
  3075  3151  3154      1
  3076  3152  3155      1
  3077  3152  3156      1
  3078  3152  3157      1
  3079  3157  3158      1
  3080  3157  3159      1
  3081  3157  3160      1
  3082  3158  3161      1
  3083  3158  3162      1
  3084  3158  3163      1
  3085  3163  3164      1
  3086  3163  3165      1
  3087  3163  3166      1
  3088  3164  3167      1
  3089  3164  3168      1
  3090  3164  3169      1
  3091  3169  3170      1
  3092  3169  3171      1
  3093  3169  3172      1
  3094  3170  3173      1
  3095  3170  3174      1
  3096  3170  3175      1
  3097  3175  3176      1
  3098  3175  3177      1
  3099  3175  3178      1
  3100  3176  3179      1
  3101  3176  3180      1
  3102  3176  3181      1
  3103  3181  3182      1
  3104  3181  3183      1
  3105  3181  3184      1
  3106  3182  3185      1
  3107  3182  3186      1
  3108  3182  3187      1
  3109  3187  3188      1
  3110  3187  3189      1
  3111  3187  3190      1
  3112  3188  3191      1
  3113  3188  3192      1
  3114  3188  3193      1
  3115  3193  3194      1
  3116  3193  3195      1
  3117  3193  3196      1
  3118  3194  3197      1
  3119  3194  3198      1
  3120  3194  3199      1
  3121  3199  3200      1
  3122  3199  3201      1
  3123  3199  3202      1
  3124  3200  3203      1
  3125  3200  3204      1
  3126  3200  3205      1
  3127  3205  3206      1
  3128  3205  3207      1
  3129  3205  3208      1
  3130  3206  3209      1
  3131  3206  3210      1
  3132  3206  3211      1
  3133  3211  3212      1
  3134  3211  3213      1
  3135  3211  3214      1
  3136  3212  3215      1
  3137  3212  3216      1
  3138  3212  3217      1
  3139  3217  3218      1
  3140  3217  3219      1
  3141  3217  3220      1
  3142  3218  3221      1
  3143  3218  3222      1
  3144  3218  3223      1
  3145  3223  3224      1
  3146  3223  3225      1
  3147  3223  3226      1
  3148  3224  3227      1
  3149  3224  3228      1
  3150  3224  3229      1
  3151  3229  3230      1
  3152  3229  3231      1
  3153  3229  3232      1
  3154  3230  3233      1
  3155  3230  3234      1
  3156  3235  3236      1
  3157  3235  3237      1
  3158  3235  3238      1
  3159  3236  3239      1
  3160  3236  3240      1
  3161  3236  3241      1
  3162  3241  3242      1
  3163  3241  3243      1
  3164  3241  3244      1
  3165  3242  3245      1
  3166  3242  3246      1
  3167  3242  3247      1
  3168  3247  3248      1
  3169  3247  3249      1
  3170  3247  3250      1
  3171  3248  3251      1
  3172  3248  3252      1
  3173  3248  3253      1
  3174  3253  3254      1
  3175  3253  3255      1
  3176  3253  3256      1
  3177  3254  3257      1
  3178  3254  3258      1
  3179  3254  3259      1
  3180  3259  3260      1
  3181  3259  3261      1
  3182  3259  3262      1
  3183  3260  3263      1
  3184  3260  3264      1
  3185  3260  3265      1
  3186  3265  3266      1
  3187  3265  3267      1
  3188  3265  3268      1
  3189  3266  3269      1
  3190  3266  3270      1
  3191  3266  3271      1
  3192  3271  3272      1
  3193  3271  3273      1
  3194  3271  3274      1
  3195  3272  3275      1
  3196  3272  3276      1
  3197  3272  3277      1
  3198  3277  3278      1
  3199  3277  3279      1
  3200  3277  3280      1
  3201  3278  3281      1
  3202  3278  3282      1
  3203  3278  3283      1
  3204  3283  3284      1
  3205  3283  3285      1
  3206  3283  3286      1
  3207  3284  3287      1
  3208  3284  3288      1
  3209  3284  3289      1
  3210  3289  3290      1
  3211  3289  3291      1
  3212  3289  3292      1
  3213  3290  3293      1
  3214  3290  3294      1
  3215  3290  3295      1
  3216  3295  3296      1
  3217  3295  3297      1
  3218  3295  3298      1
  3219  3296  3299      1
  3220  3296  3300      1
  3221  3296  3301      1
  3222  3301  3302      1
  3223  3301  3303      1
  3224  3301  3304      1
  3225  3302  3305      1
  3226  3302  3306      1
  3227  3302  3307      1
  3228  3307  3308      1
  3229  3307  3309      1
  3230  3307  3310      1
  3231  3308  3311      1
  3232  3308  3312      1
  3233  3313  3314      1
  3234  3313  3315      1
  3235  3313  3316      1
  3236  3314  3317      1
  3237  3314  3318      1
  3238  3314  3319      1
  3239  3319  3320      1
  3240  3319  3321      1
  3241  3319  3322      1
  3242  3320  3323      1
  3243  3320  3324      1
  3244  3320  3325      1
  3245  3325  3326      1
  3246  3325  3327      1
  3247  3325  3328      1
  3248  3326  3329      1
  3249  3326  3330      1
  3250  3326  3331      1
  3251  3331  3332      1
  3252  3331  3333      1
  3253  3331  3334      1
  3254  3332  3335      1
  3255  3332  3336      1
  3256  3332  3337      1
  3257  3337  3338      1
  3258  3337  3339      1
  3259  3337  3340      1
  3260  3338  3341      1
  3261  3338  3342      1
  3262  3338  3343      1
  3263  3343  3344      1
  3264  3343  3345      1
  3265  3343  3346      1
  3266  3344  3347      1
  3267  3344  3348      1
  3268  3344  3349      1
  3269  3349  3350      1
  3270  3349  3351      1
  3271  3349  3352      1
  3272  3350  3353      1
  3273  3350  3354      1
  3274  3350  3355      1
  3275  3355  3356      1
  3276  3355  3357      1
  3277  3355  3358      1
  3278  3356  3359      1
  3279  3356  3360      1
  3280  3356  3361      1
  3281  3361  3362      1
  3282  3361  3363      1
  3283  3361  3364      1
  3284  3362  3365      1
  3285  3362  3366      1
  3286  3362  3367      1
  3287  3367  3368      1
  3288  3367  3369      1
  3289  3367  3370      1
  3290  3368  3371      1
  3291  3368  3372      1
  3292  3368  3373      1
  3293  3373  3374      1
  3294  3373  3375      1
  3295  3373  3376      1
  3296  3374  3377      1
  3297  3374  3378      1
  3298  3374  3379      1
  3299  3379  3380      1
  3300  3379  3381      1
  3301  3379  3382      1
  3302  3380  3383      1
  3303  3380  3384      1
  3304  3380  3385      1
  3305  3385  3386      1
  3306  3385  3387      1
  3307  3385  3388      1
  3308  3386  3389      1
  3309  3386  3390      1
  3310  3386  3391      1
  3311  3391  3392      1
  3312  3391  3393      1
  3313  3391  3394      1
  3314  3392  3395      1
  3315  3392  3396      1
  3316  3392  3397      1
  3317  3397  3398      1
  3318  3397  3399      1
  3319  3397  3400      1
  3320  3398  3401      1
  3321  3398  3402      1
  3322  3398  3403      1
  3323  3403  3404      1
  3324  3403  3405      1
  3325  3403  3406      1
  3326  3404  3407      1
  3327  3404  3408      1
  3328  3404  3409      1
  3329  3409  3410      1
  3330  3409  3411      1
  3331  3409  3412      1
  3332  3410  3413      1
  3333  3410  3414      1
  3334  3410  3415      1
  3335  3415  3416      1
  3336  3415  3417      1
  3337  3415  3418      1
  3338  3416  3419      1
  3339  3416  3420      1
  3340  3416  3421      1
  3341  3421  3422      1
  3342  3421  3423      1
  3343  3421  3424      1
  3344  3422  3425      1
  3345  3422  3426      1
  3346  3422  3427      1
  3347  3427  3428      1
  3348  3427  3429      1
  3349  3427  3430      1
  3350  3428  3431      1
  3351  3428  3432      1
  3352  3428  3433      1
  3353  3433  3434      1
  3354  3433  3435      1
  3355  3433  3436      1
  3356  3434  3437      1
  3357  3434  3438      1
  3358  3434  3439      1
  3359  3439  3440      1
  3360  3439  3441      1
  3361  3439  3442      1
  3362  3440  3443      1
  3363  3440  3444      1
  3364  3440  3445      1
  3365  3445  3446      1
  3366  3445  3447      1
  3367  3445  3448      1
  3368  3446  3449      1
  3369  3446  3450      1
  3370  3446  3451      1
  3371  3451  3452      1
  3372  3451  3453      1
  3373  3451  3454      1
  3374  3452  3455      1
  3375  3452  3456      1
  3376  3452  3457      1
  3377  3457  3458      1
  3378  3457  3459      1
  3379  3457  3460      1
  3380  3458  3461      1
  3381  3458  3462      1
  3382  3458  3463      1
  3383  3463  3464      1
  3384  3463  3465      1
  3385  3463  3466      1
  3386  3464  3467      1
  3387  3464  3468      1
  3388  3464  3469      1
  3389  3469  3470      1
  3390  3469  3471      1
  3391  3469  3472      1
  3392  3470  3473      1
  3393  3470  3474      1
  3394  3470  3475      1
  3395  3475  3476      1
  3396  3475  3477      1
  3397  3475  3478      1
  3398  3476  3479      1
  3399  3476  3480      1
  3400  3476  3481      1
  3401  3481  3482      1
  3402  3481  3483      1
  3403  3481  3484      1
  3404  3482  3485      1
  3405  3482  3486      1
  3406  3482  3487      1
  3407  3487  3488      1
  3408  3487  3489      1
  3409  3487  3490      1
  3410  3488  3491      1
  3411  3488  3492      1
  3412  3488  3493      1
  3413  3493  3494      1
  3414  3493  3495      1
  3415  3493  3496      1
  3416  3494  3497      1
  3417  3494  3498      1
  3418  3494  3499      1
  3419  3499  3500      1
  3420  3499  3501      1
  3421  3499  3502      1
  3422  3500  3503      1
  3423  3500  3504      1
  3424  3500  3505      1
  3425  3505  3506      1
  3426  3505  3507      1
  3427  3505  3508      1
  3428  3506  3509      1
  3429  3506  3510      1
  3430  3506  3511      1
  3431  3511  3512      1
  3432  3511  3513      1
  3433  3511  3514      1
  3434  3512  3515      1
  3435  3512  3516      1
  3436  3517  3518      1
  3437  3517  3519      1
  3438  3517  3520      1
  3439  3518  3521      1
  3440  3518  3522      1
  3441  3518  3523      1
  3442  3523  3524      1
  3443  3523  3525      1
  3444  3523  3526      1
  3445  3524  3527      1
  3446  3524  3528      1
  3447  3524  3529      1
  3448  3529  3530      1
  3449  3529  3531      1
  3450  3529  3532      1
  3451  3530  3533      1
  3452  3530  3534      1
  3453  3530  3535      1
  3454  3535  3536      1
  3455  3535  3537      1
  3456  3535  3538      1
  3457  3536  3539      1
  3458  3536  3540      1
  3459  3536  3541      1
  3460  3541  3542      1
  3461  3541  3543      1
  3462  3541  3544      1
  3463  3542  3545      1
  3464  3542  3546      1
  3465  3542  3547      1
  3466  3547  3548      1
  3467  3547  3549      1
  3468  3547  3550      1
  3469  3548  3551      1
  3470  3548  3552      1
  3471  3548  3553      1
  3472  3553  3554      1
  3473  3553  3555      1
  3474  3553  3556      1
  3475  3554  3557      1
  3476  3554  3558      1
  3477  3554  3559      1
  3478  3559  3560      1
  3479  3559  3561      1
  3480  3559  3562      1
  3481  3560  3563      1
  3482  3560  3564      1
  3483  3560  3565      1
  3484  3565  3566      1
  3485  3565  3567      1
  3486  3565  3568      1
  3487  3566  3569      1
  3488  3566  3570      1
  3489  3566  3571      1
  3490  3571  3572      1
  3491  3571  3573      1
  3492  3571  3574      1
  3493  3572  3575      1
  3494  3572  3576      1
  3495  3572  3577      1
  3496  3577  3578      1
  3497  3577  3579      1
  3498  3577  3580      1
  3499  3578  3581      1
  3500  3578  3582      1
  3501  3578  3583      1
  3502  3583  3584      1
  3503  3583  3585      1
  3504  3583  3586      1
  3505  3584  3587      1
  3506  3584  3588      1
  3507  3584  3589      1
  3508  3589  3590      1
  3509  3589  3591      1
  3510  3589  3592      1
  3511  3590  3593      1
  3512  3590  3594      1
  3513  3590  3595      1
  3514  3595  3596      1
  3515  3595  3597      1
  3516  3595  3598      1
  3517  3596  3599      1
  3518  3596  3600      1
  3519  3596  3601      1
  3520  3601  3602      1
  3521  3601  3603      1
  3522  3601  3604      1
  3523  3602  3605      1
  3524  3602  3606      1
  3525  3602  3607      1
  3526  3607  3608      1
  3527  3607  3609      1
  3528  3607  3610      1
  3529  3608  3611      1
  3530  3608  3612      1
  3531  3608  3613      1
  3532  3613  3614      1
  3533  3613  3615      1
  3534  3613  3616      1
  3535  3614  3617      1
  3536  3614  3618      1
  3537  3614  3619      1
  3538  3619  3620      1
  3539  3619  3621      1
  3540  3619  3622      1
  3541  3620  3623      1
  3542  3620  3624      1
  3543  3620  3625      1
  3544  3625  3626      1
  3545  3625  3627      1
  3546  3625  3628      1
  3547  3626  3629      1
  3548  3626  3630      1
  3549  3626  3631      1
  3550  3631  3632      1
  3551  3631  3633      1
  3552  3631  3634      1
  3553  3632  3635      1
  3554  3632  3636      1
  3555  3632  3637      1
  3556  3637  3638      1
  3557  3637  3639      1
  3558  3637  3640      1
  3559  3638  3641      1
  3560  3638  3642      1
  3561  3643  3644      1
  3562  3643  3645      1
  3563  3643  3646      1
  3564  3644  3647      1
  3565  3644  3648      1
  3566  3644  3649      1
  3567  3649  3650      1
  3568  3649  3651      1
  3569  3649  3652      1
  3570  3650  3653      1
  3571  3650  3654      1
  3572  3650  3655      1
  3573  3655  3656      1
  3574  3655  3657      1
  3575  3655  3658      1
  3576  3656  3659      1
  3577  3656  3660      1
  3578  3656  3661      1
  3579  3661  3662      1
  3580  3661  3663      1
  3581  3661  3664      1
  3582  3662  3665      1
  3583  3662  3666      1
  3584  3662  3667      1
  3585  3667  3668      1
  3586  3667  3669      1
  3587  3667  3670      1
  3588  3668  3671      1
  3589  3668  3672      1
  3590  3668  3673      1
  3591  3673  3674      1
  3592  3673  3675      1
  3593  3673  3676      1
  3594  3674  3677      1
  3595  3674  3678      1
  3596  3674  3679      1
  3597  3679  3680      1
  3598  3679  3681      1
  3599  3679  3682      1
  3600  3680  3683      1
  3601  3680  3684      1
  3602  3680  3685      1
  3603  3685  3686      1
  3604  3685  3687      1
  3605  3685  3688      1
  3606  3686  3689      1
  3607  3686  3690      1
  3608  3686  3691      1
  3609  3691  3692      1
  3610  3691  3693      1
  3611  3691  3694      1
  3612  3692  3695      1
  3613  3692  3696      1
  3614  3692  3697      1
  3615  3697  3698      1
  3616  3697  3699      1
  3617  3697  3700      1
  3618  3698  3701      1
  3619  3698  3702      1
  3620  3698  3703      1
  3621  3703  3704      1
  3622  3703  3705      1
  3623  3703  3706      1
  3624  3704  3707      1
  3625  3704  3708      1
  3626  3704  3709      1
  3627  3709  3710      1
  3628  3709  3711      1
  3629  3709  3712      1
  3630  3710  3713      1
  3631  3710  3714      1
  3632  3710  3715      1
  3633  3715  3716      1
  3634  3715  3717      1
  3635  3715  3718      1
  3636  3716  3719      1
  3637  3716  3720      1
  3638  3716  3721      1
  3639  3721  3722      1
  3640  3721  3723      1
  3641  3721  3724      1
  3642  3722  3725      1
  3643  3722  3726      1
  3644  3722  3727      1
  3645  3727  3728      1
  3646  3727  3729      1
  3647  3727  3730      1
  3648  3728  3731      1
  3649  3728  3732      1
  3650  3728  3733      1
  3651  3733  3734      1
  3652  3733  3735      1
  3653  3733  3736      1
  3654  3734  3737      1
  3655  3734  3738      1
  3656  3734  3739      1
  3657  3739  3740      1
  3658  3739  3741      1
  3659  3739  3742      1
  3660  3740  3743      1
  3661  3740  3744      1
  3662  3740  3745      1
  3663  3745  3746      1
  3664  3745  3747      1
  3665  3745  3748      1
  3666  3746  3749      1
  3667  3746  3750      1
  3668  3746  3751      1
  3669  3751  3752      1
  3670  3751  3753      1
  3671  3751  3754      1
  3672  3752  3755      1
  3673  3752  3756      1
  3674  3752  3757      1
  3675  3757  3758      1
  3676  3757  3759      1
  3677  3757  3760      1
  3678  3758  3761      1
  3679  3758  3762      1
  3680  3758  3763      1
  3681  3763  3764      1
  3682  3763  3765      1
  3683  3763  3766      1
  3684  3764  3767      1
  3685  3764  3768      1
  3686  3764  3769      1
  3687  3769  3770      1
  3688  3769  3771      1
  3689  3769  3772      1
  3690  3770  3773      1
  3691  3770  3774      1
  3692  3775  3776      1
  3693  3775  3777      1
  3694  3775  3778      1
  3695  3776  3779      1
  3696  3776  3780      1
  3697  3776  3781      1
  3698  3781  3782      1
  3699  3781  3783      1
  3700  3781  3784      1
  3701  3782  3785      1
  3702  3782  3786      1
  3703  3782  3787      1
  3704  3787  3788      1
  3705  3787  3789      1
  3706  3787  3790      1
  3707  3788  3791      1
  3708  3788  3792      1
  3709  3788  3793      1
  3710  3793  3794      1
  3711  3793  3795      1
  3712  3793  3796      1
  3713  3794  3797      1
  3714  3794  3798      1
  3715  3794  3799      1
  3716  3799  3800      1
  3717  3799  3801      1
  3718  3799  3802      1
  3719  3800  3803      1
  3720  3800  3804      1
  3721  3800  3805      1
  3722  3805  3806      1
  3723  3805  3807      1
  3724  3805  3808      1
  3725  3806  3809      1
  3726  3806  3810      1
  3727  3806  3811      1
  3728  3811  3812      1
  3729  3811  3813      1
  3730  3811  3814      1
  3731  3812  3815      1
  3732  3812  3816      1
  3733  3812  3817      1
  3734  3817  3818      1
  3735  3817  3819      1
  3736  3817  3820      1
  3737  3818  3821      1
  3738  3818  3822      1
  3739  3818  3823      1
  3740  3823  3824      1
  3741  3823  3825      1
  3742  3823  3826      1
  3743  3824  3827      1
  3744  3824  3828      1
  3745  3824  3829      1
  3746  3829  3830      1
  3747  3829  3831      1
  3748  3829  3832      1
  3749  3830  3833      1
  3750  3830  3834      1
  3751  3830  3835      1
  3752  3835  3836      1
  3753  3835  3837      1
  3754  3835  3838      1
  3755  3836  3839      1
  3756  3836  3840      1
  3757  3836  3841      1
  3758  3841  3842      1
  3759  3841  3843      1
  3760  3841  3844      1
  3761  3842  3845      1
  3762  3842  3846      1
  3763  3842  3847      1
  3764  3847  3848      1
  3765  3847  3849      1
  3766  3847  3850      1
  3767  3848  3851      1
  3768  3848  3852      1
  3769  3848  3853      1
  3770  3853  3854      1
  3771  3853  3855      1
  3772  3853  3856      1
  3773  3854  3857      1
  3774  3854  3858      1
  3775  3854  3859      1
  3776  3859  3860      1
  3777  3859  3861      1
  3778  3859  3862      1
  3779  3860  3863      1
  3780  3860  3864      1
  3781  3860  3865      1
  3782  3865  3866      1
  3783  3865  3867      1
  3784  3865  3868      1
  3785  3866  3869      1
  3786  3866  3870      1
  3787  3866  3871      1
  3788  3871  3872      1
  3789  3871  3873      1
  3790  3871  3874      1
  3791  3872  3875      1
  3792  3872  3876      1
  3793  3872  3877      1
  3794  3877  3878      1
  3795  3877  3879      1
  3796  3877  3880      1
  3797  3878  3881      1
  3798  3878  3882      1
  3799  3878  3883      1
  3800  3883  3884      1
  3801  3883  3885      1
  3802  3883  3886      1
  3803  3884  3887      1
  3804  3884  3888      1
  3805  3884  3889      1
  3806  3889  3890      1
  3807  3889  3891      1
  3808  3889  3892      1
  3809  3890  3893      1
  3810  3890  3894      1
  3811  3890  3895      1
  3812  3895  3896      1
  3813  3895  3897      1
  3814  3895  3898      1
  3815  3896  3899      1
  3816  3896  3900      1
  3817  3896  3901      1
  3818  3901  3902      1
  3819  3901  3903      1
  3820  3901  3904      1
  3821  3902  3905      1
  3822  3902  3906      1
  3823  3902  3907      1
  3824  3907  3908      1
  3825  3907  3909      1
  3826  3907  3910      1
  3827  3908  3911      1
  3828  3908  3912      1
  3829  3908  3913      1
  3830  3913  3914      1
  3831  3913  3915      1
  3832  3913  3916      1
  3833  3914  3917      1
  3834  3914  3918      1
  3835  3914  3919      1
  3836  3919  3920      1
  3837  3919  3921      1
  3838  3919  3922      1
  3839  3920  3923      1
  3840  3920  3924      1
  3841  3920  3925      1
  3842  3925  3926      1
  3843  3925  3927      1
  3844  3925  3928      1
  3845  3926  3929      1
  3846  3926  3930      1
  3847  3926  3931      1
  3848  3931  3932      1
  3849  3931  3933      1
  3850  3931  3934      1
  3851  3932  3935      1
  3852  3932  3936      1
  3853  3932  3937      1
  3854  3937  3938      1
  3855  3937  3939      1
  3856  3937  3940      1
  3857  3938  3941      1
  3858  3938  3942      1
  3859  3938  3943      1
  3860  3943  3944      1
  3861  3943  3945      1
  3862  3943  3946      1
  3863  3944  3947      1
  3864  3944  3948      1
  3865  3944  3949      1
  3866  3949  3950      1
  3867  3949  3951      1
  3868  3949  3952      1
  3869  3950  3953      1
  3870  3950  3954      1
  3871  3950  3955      1
  3872  3955  3956      1
  3873  3955  3957      1
  3874  3955  3958      1
  3875  3956  3959      1
  3876  3956  3960      1
  3877  3956  3961      1
  3878  3961  3962      1
  3879  3961  3963      1
  3880  3961  3964      1
  3881  3962  3965      1
  3882  3962  3966      1
  3883  3962  3967      1
  3884  3967  3968      1
  3885  3967  3969      1
  3886  3967  3970      1
  3887  3968  3971      1
  3888  3968  3972      1
  3889  3968  3973      1
  3890  3973  3974      1
  3891  3973  3975      1
  3892  3973  3976      1
  3893  3974  3977      1
  3894  3974  3978      1
  3895  3974  3979      1
  3896  3979  3980      1
  3897  3979  3981      1
  3898  3979  3982      1
  3899  3980  3983      1
  3900  3980  3984      1
  3901  3980  3985      1
  3902  3985  3986      1
  3903  3985  3987      1
  3904  3985  3988      1
  3905  3986  3989      1
  3906  3986  3990      1
  3907  3986  3991      1
  3908  3991  3992      1
  3909  3991  3993      1
  3910  3991  3994      1
  3911  3992  3995      1
  3912  3992  3996      1
  3913  3997  3998      1
  3914  3997  3999      1
  3915  3997  4000      1
  3916  3998  4001      1
  3917  3998  4002      1
  3918  3998  4003      1
  3919  4003  4004      1
  3920  4003  4005      1
  3921  4003  4006      1
  3922  4004  4007      1
  3923  4004  4008      1
  3924  4004  4009      1
  3925  4009  4010      1
  3926  4009  4011      1
  3927  4009  4012      1
  3928  4010  4013      1
  3929  4010  4014      1
  3930  4010  4015      1
  3931  4015  4016      1
  3932  4015  4017      1
  3933  4015  4018      1
  3934  4016  4019      1
  3935  4016  4020      1
  3936  4016  4021      1
  3937  4021  4022      1
  3938  4021  4023      1
  3939  4021  4024      1
  3940  4022  4025      1
  3941  4022  4026      1
  3942  4022  4027      1
  3943  4027  4028      1
  3944  4027  4029      1
  3945  4027  4030      1
  3946  4028  4031      1
  3947  4028  4032      1
  3948  4028  4033      1
  3949  4033  4034      1
  3950  4033  4035      1
  3951  4033  4036      1
  3952  4034  4037      1
  3953  4034  4038      1
  3954  4034  4039      1
  3955  4039  4040      1
  3956  4039  4041      1
  3957  4039  4042      1
  3958  4040  4043      1
  3959  4040  4044      1
  3960  4040  4045      1
  3961  4045  4046      1
  3962  4045  4047      1
  3963  4045  4048      1
  3964  4046  4049      1
  3965  4046  4050      1
  3966  4046  4051      1
  3967  4051  4052      1
  3968  4051  4053      1
  3969  4051  4054      1
  3970  4052  4055      1
  3971  4052  4056      1
  3972  4052  4057      1
  3973  4057  4058      1
  3974  4057  4059      1
  3975  4057  4060      1
  3976  4058  4061      1
  3977  4058  4062      1
  3978  4058  4063      1
  3979  4063  4064      1
  3980  4063  4065      1
  3981  4063  4066      1
  3982  4064  4067      1
  3983  4064  4068      1
  3984  4064  4069      1
  3985  4069  4070      1
  3986  4069  4071      1
  3987  4069  4072      1
  3988  4070  4073      1
  3989  4070  4074      1
  3990  4070  4075      1
  3991  4075  4076      1
  3992  4075  4077      1
  3993  4075  4078      1
  3994  4076  4079      1
  3995  4076  4080      1
  3996  4076  4081      1
  3997  4081  4082      1
  3998  4081  4083      1
  3999  4081  4084      1
  4000  4082  4085      1
  4001  4082  4086      1
  4002  4082  4087      1
  4003  4087  4088      1
  4004  4087  4089      1
  4005  4087  4090      1
  4006  4088  4091      1
  4007  4088  4092      1
  4008  4088  4093      1
  4009  4093  4094      1
  4010  4093  4095      1
  4011  4093  4096      1
  4012  4094  4097      1
  4013  4094  4098      1
  4014  4094  4099      1
  4015  4099  4100      1
  4016  4099  4101      1
  4017  4099  4102      1
  4018  4100  4103      1
  4019  4100  4104      1
  4020  4100  4105      1
  4021  4105  4106      1
  4022  4105  4107      1
  4023  4105  4108      1
  4024  4106  4109      1
  4025  4106  4110      1
  4026  4106  4111      1
  4027  4111  4112      1
  4028  4111  4113      1
  4029  4111  4114      1
  4030  4112  4115      1
  4031  4112  4116      1
  4032  4112  4117      1
  4033  4117  4118      1
  4034  4117  4119      1
  4035  4117  4120      1
  4036  4118  4121      1
  4037  4118  4122      1
  4038  4118  4123      1
  4039  4123  4124      1
  4040  4123  4125      1
  4041  4123  4126      1
  4042  4124  4127      1
  4043  4124  4128      1
  4044  4129  4130      1
  4045  4129  4131      1
  4046  4129  4132      1
  4047  4130  4133      1
  4048  4130  4134      1
  4049  4130  4135      1
  4050  4135  4136      1
  4051  4135  4137      1
  4052  4135  4138      1
  4053  4136  4139      1
  4054  4136  4140      1
  4055  4136  4141      1
  4056  4141  4142      1
  4057  4141  4143      1
  4058  4141  4144      1
  4059  4142  4145      1
  4060  4142  4146      1
  4061  4142  4147      1
  4062  4147  4148      1
  4063  4147  4149      1
  4064  4147  4150      1
  4065  4148  4151      1
  4066  4148  4152      1
  4067  4148  4153      1
  4068  4153  4154      1
  4069  4153  4155      1
  4070  4153  4156      1
  4071  4154  4157      1
  4072  4154  4158      1
  4073  4154  4159      1
  4074  4159  4160      1
  4075  4159  4161      1
  4076  4159  4162      1
  4077  4160  4163      1
  4078  4160  4164      1
  4079  4160  4165      1
  4080  4165  4166      1
  4081  4165  4167      1
  4082  4165  4168      1
  4083  4166  4169      1
  4084  4166  4170      1
  4085  4166  4171      1
  4086  4171  4172      1
  4087  4171  4173      1
  4088  4171  4174      1
  4089  4172  4175      1
  4090  4172  4176      1
  4091  4172  4177      1
  4092  4177  4178      1
  4093  4177  4179      1
  4094  4177  4180      1
  4095  4178  4181      1
  4096  4178  4182      1
  4097  4178  4183      1
  4098  4183  4184      1
  4099  4183  4185      1
  4100  4183  4186      1
  4101  4184  4187      1
  4102  4184  4188      1
  4103  4184  4189      1
  4104  4189  4190      1
  4105  4189  4191      1
  4106  4189  4192      1
  4107  4190  4193      1
  4108  4190  4194      1
  4109  4190  4195      1
  4110  4195  4196      1
  4111  4195  4197      1
  4112  4195  4198      1
  4113  4196  4199      1
  4114  4196  4200      1
  4115  4196  4201      1
  4116  4201  4202      1
  4117  4201  4203      1
  4118  4201  4204      1
  4119  4202  4205      1
  4120  4202  4206      1
  4121  4202  4207      1
  4122  4207  4208      1
  4123  4207  4209      1
  4124  4207  4210      1
  4125  4208  4211      1
  4126  4208  4212      1
  4127  4208  4213      1
  4128  4213  4214      1
  4129  4213  4215      1
  4130  4213  4216      1
  4131  4214  4217      1
  4132  4214  4218      1
  4133  4214  4219      1
  4134  4219  4220      1
  4135  4219  4221      1
  4136  4219  4222      1
  4137  4220  4223      1
  4138  4220  4224      1
  4139  4220  4225      1
  4140  4225  4226      1
  4141  4225  4227      1
  4142  4225  4228      1
  4143  4226  4229      1
  4144  4226  4230      1
  4145  4226  4231      1
  4146  4231  4232      1
  4147  4231  4233      1
  4148  4231  4234      1
  4149  4232  4235      1
  4150  4232  4236      1
  4151  4237  4238      1
  4152  4237  4239      1
  4153  4237  4240      1
  4154  4238  4241      1
  4155  4238  4242      1
  4156  4238  4243      1
  4157  4243  4244      1
  4158  4243  4245      1
  4159  4243  4246      1
  4160  4244  4247      1
  4161  4244  4248      1
  4162  4244  4249      1
  4163  4249  4250      1
  4164  4249  4251      1
  4165  4249  4252      1
  4166  4250  4253      1
  4167  4250  4254      1
  4168  4250  4255      1
  4169  4255  4256      1
  4170  4255  4257      1
  4171  4255  4258      1
  4172  4256  4259      1
  4173  4256  4260      1
  4174  4256  4261      1
  4175  4261  4262      1
  4176  4261  4263      1
  4177  4261  4264      1
  4178  4262  4265      1
  4179  4262  4266      1
  4180  4262  4267      1
  4181  4267  4268      1
  4182  4267  4269      1
  4183  4267  4270      1
  4184  4268  4271      1
  4185  4268  4272      1
  4186  4268  4273      1
  4187  4273  4274      1
  4188  4273  4275      1
  4189  4273  4276      1
  4190  4274  4277      1
  4191  4274  4278      1
  4192  4274  4279      1
  4193  4279  4280      1
  4194  4279  4281      1
  4195  4279  4282      1
  4196  4280  4283      1
  4197  4280  4284      1
  4198  4280  4285      1
  4199  4285  4286      1
  4200  4285  4287      1
  4201  4285  4288      1
  4202  4286  4289      1
  4203  4286  4290      1
  4204  4286  4291      1
  4205  4291  4292      1
  4206  4291  4293      1
  4207  4291  4294      1
  4208  4292  4295      1
  4209  4292  4296      1
  4210  4292  4297      1
  4211  4297  4298      1
  4212  4297  4299      1
  4213  4297  4300      1
  4214  4298  4301      1
  4215  4298  4302      1
  4216  4298  4303      1
  4217  4303  4304      1
  4218  4303  4305      1
  4219  4303  4306      1
  4220  4304  4307      1
  4221  4304  4308      1
  4222  4304  4309      1
  4223  4309  4310      1
  4224  4309  4311      1
  4225  4309  4312      1
  4226  4310  4313      1
  4227  4310  4314      1
  4228  4310  4315      1
  4229  4315  4316      1
  4230  4315  4317      1
  4231  4315  4318      1
  4232  4316  4319      1
  4233  4316  4320      1
  4234  4316  4321      1
  4235  4321  4322      1
  4236  4321  4323      1
  4237  4321  4324      1
  4238  4322  4325      1
  4239  4322  4326      1
  4240  4322  4327      1
  4241  4327  4328      1
  4242  4327  4329      1
  4243  4327  4330      1
  4244  4328  4331      1
  4245  4328  4332      1
  4246  4333  4334      1
  4247  4333  4335      1
  4248  4333  4336      1
  4249  4334  4337      1
  4250  4334  4338      1
  4251  4334  4339      1
  4252  4339  4340      1
  4253  4339  4341      1
  4254  4339  4342      1
  4255  4340  4343      1
  4256  4340  4344      1
  4257  4340  4345      1
  4258  4345  4346      1
  4259  4345  4347      1
  4260  4345  4348      1
  4261  4346  4349      1
  4262  4346  4350      1
  4263  4346  4351      1
  4264  4351  4352      1
  4265  4351  4353      1
  4266  4351  4354      1
  4267  4352  4355      1
  4268  4352  4356      1
  4269  4352  4357      1
  4270  4357  4358      1
  4271  4357  4359      1
  4272  4357  4360      1
  4273  4358  4361      1
  4274  4358  4362      1
  4275  4358  4363      1
  4276  4363  4364      1
  4277  4363  4365      1
  4278  4363  4366      1
  4279  4364  4367      1
  4280  4364  4368      1
  4281  4364  4369      1
  4282  4369  4370      1
  4283  4369  4371      1
  4284  4369  4372      1
  4285  4370  4373      1
  4286  4370  4374      1
  4287  4370  4375      1
  4288  4375  4376      1
  4289  4375  4377      1
  4290  4375  4378      1
  4291  4376  4379      1
  4292  4376  4380      1
  4293  4376  4381      1
  4294  4381  4382      1
  4295  4381  4383      1
  4296  4381  4384      1
  4297  4382  4385      1
  4298  4382  4386      1
  4299  4382  4387      1
  4300  4387  4388      1
  4301  4387  4389      1
  4302  4387  4390      1
  4303  4388  4391      1
  4304  4388  4392      1
  4305  4388  4393      1
  4306  4393  4394      1
  4307  4393  4395      1
  4308  4393  4396      1
  4309  4394  4397      1
  4310  4394  4398      1
  4311  4394  4399      1
  4312  4399  4400      1
  4313  4399  4401      1
  4314  4399  4402      1
  4315  4400  4403      1
  4316  4400  4404      1
  4317  4400  4405      1
  4318  4405  4406      1
  4319  4405  4407      1
  4320  4405  4408      1
  4321  4406  4409      1
  4322  4406  4410      1
  4323  4406  4411      1
  4324  4411  4412      1
  4325  4411  4413      1
  4326  4411  4414      1
  4327  4412  4415      1
  4328  4412  4416      1
  4329  4412  4417      1
  4330  4417  4418      1
  4331  4417  4419      1
  4332  4417  4420      1
  4333  4418  4421      1
  4334  4418  4422      1
  4335  4418  4423      1
  4336  4423  4424      1
  4337  4423  4425      1
  4338  4423  4426      1
  4339  4424  4427      1
  4340  4424  4428      1
  4341  4424  4429      1
  4342  4429  4430      1
  4343  4429  4431      1
  4344  4429  4432      1
  4345  4430  4433      1
  4346  4430  4434      1
  4347  4430  4435      1
  4348  4435  4436      1
  4349  4435  4437      1
  4350  4435  4438      1
  4351  4436  4439      1
  4352  4436  4440      1
  4353  4436  4441      1
  4354  4441  4442      1
  4355  4441  4443      1
  4356  4441  4444      1
  4357  4442  4445      1
  4358  4442  4446      1
  4359  4442  4447      1
  4360  4447  4448      1
  4361  4447  4449      1
  4362  4447  4450      1
  4363  4448  4451      1
  4364  4448  4452      1
  4365  4448  4453      1
  4366  4453  4454      1
  4367  4453  4455      1
  4368  4453  4456      1
  4369  4454  4457      1
  4370  4454  4458      1
  4371  4454  4459      1
  4372  4459  4460      1
  4373  4459  4461      1
  4374  4459  4462      1
  4375  4460  4463      1
  4376  4460  4464      1
  4377  4460  4465      1
  4378  4465  4466      1
  4379  4465  4467      1
  4380  4465  4468      1
  4381  4466  4469      1
  4382  4466  4470      1
  4383  4466  4471      1
  4384  4471  4472      1
  4385  4471  4473      1
  4386  4471  4474      1
  4387  4472  4475      1
  4388  4472  4476      1
  4389  4472  4477      1
  4390  4477  4478      1
  4391  4477  4479      1
  4392  4477  4480      1
  4393  4478  4481      1
  4394  4478  4482      1
  4395  4478  4483      1
  4396  4483  4484      1
  4397  4483  4485      1
  4398  4483  4486      1
  4399  4484  4487      1
  4400  4484  4488      1
  4401  4484  4489      1
  4402  4489  4490      1
  4403  4489  4491      1
  4404  4489  4492      1
  4405  4490  4493      1
  4406  4490  4494      1
  4407  4490  4495      1
  4408  4495  4496      1
  4409  4495  4497      1
  4410  4495  4498      1
  4411  4496  4499      1
  4412  4496  4500      1
  4413  4496  4501      1
  4414  4501  4502      1
  4415  4501  4503      1
  4416  4501  4504      1
  4417  4502  4505      1
  4418  4502  4506      1
  4419  4502  4507      1
  4420  4507  4508      1
  4421  4507  4509      1
  4422  4507  4510      1
  4423  4508  4511      1
  4424  4508  4512      1
  4425  4508  4513      1
  4426  4513  4514      1
  4427  4513  4515      1
  4428  4513  4516      1
  4429  4514  4517      1
  4430  4514  4518      1
  4431  4514  4519      1
  4432  4519  4520      1
  4433  4519  4521      1
  4434  4519  4522      1
  4435  4520  4523      1
  4436  4520  4524      1
  4437  4520  4525      1
  4438  4525  4526      1
  4439  4525  4527      1
  4440  4525  4528      1
  4441  4526  4529      1
  4442  4526  4530      1
  4443  4526  4531      1
  4444  4531  4532      1
  4445  4531  4533      1
  4446  4531  4534      1
  4447  4532  4535      1
  4448  4532  4536      1
  4449  4532  4537      1
  4450  4537  4538      1
  4451  4537  4539      1
  4452  4537  4540      1
  4453  4538  4541      1
  4454  4538  4542      1
  4455  4538  4543      1
  4456  4543  4544      1
  4457  4543  4545      1
  4458  4543  4546      1
  4459  4544  4547      1
  4460  4544  4548      1
  4461  4544  4549      1
  4462  4549  4550      1
  4463  4549  4551      1
  4464  4549  4552      1
  4465  4550  4553      1
  4466  4550  4554      1
  4467  4550  4555      1
  4468  4555  4556      1
  4469  4555  4557      1
  4470  4555  4558      1
  4471  4556  4559      1
  4472  4556  4560      1
  4473  4556  4561      1
  4474  4561  4562      1
  4475  4561  4563      1
  4476  4561  4564      1
  4477  4562  4565      1
  4478  4562  4566      1
  4479  4562  4567      1
  4480  4567  4568      1
  4481  4567  4569      1
  4482  4567  4570      1
  4483  4568  4571      1
  4484  4568  4572      1
  4485  4573  4574      1
  4486  4573  4575      1
  4487  4573  4576      1
  4488  4574  4577      1
  4489  4574  4578      1
  4490  4574  4579      1
  4491  4579  4580      1
  4492  4579  4581      1
  4493  4579  4582      1
  4494  4580  4583      1
  4495  4580  4584      1
  4496  4580  4585      1
  4497  4585  4586      1
  4498  4585  4587      1
  4499  4585  4588      1
  4500  4586  4589      1
  4501  4586  4590      1
  4502  4586  4591      1
  4503  4591  4592      1
  4504  4591  4593      1
  4505  4591  4594      1
  4506  4592  4595      1
  4507  4592  4596      1
  4508  4592  4597      1
  4509  4597  4598      1
  4510  4597  4599      1
  4511  4597  4600      1
  4512  4598  4601      1
  4513  4598  4602      1
  4514  4598  4603      1
  4515  4603  4604      1
  4516  4603  4605      1
  4517  4603  4606      1
  4518  4604  4607      1
  4519  4604  4608      1
  4520  4604  4609      1
  4521  4609  4610      1
  4522  4609  4611      1
  4523  4609  4612      1
  4524  4610  4613      1
  4525  4610  4614      1
  4526  4610  4615      1
  4527  4615  4616      1
  4528  4615  4617      1
  4529  4615  4618      1
  4530  4616  4619      1
  4531  4616  4620      1
  4532  4616  4621      1
  4533  4621  4622      1
  4534  4621  4623      1
  4535  4621  4624      1
  4536  4622  4625      1
  4537  4622  4626      1
  4538  4622  4627      1
  4539  4627  4628      1
  4540  4627  4629      1
  4541  4627  4630      1
  4542  4628  4631      1
  4543  4628  4632      1
  4544  4628  4633      1
  4545  4633  4634      1
  4546  4633  4635      1
  4547  4633  4636      1
  4548  4634  4637      1
  4549  4634  4638      1
  4550  4634  4639      1
  4551  4639  4640      1
  4552  4639  4641      1
  4553  4639  4642      1
  4554  4640  4643      1
  4555  4640  4644      1
  4556  4640  4645      1
  4557  4645  4646      1
  4558  4645  4647      1
  4559  4645  4648      1
  4560  4646  4649      1
  4561  4646  4650      1
  4562  4646  4651      1
  4563  4651  4652      1
  4564  4651  4653      1
  4565  4651  4654      1
  4566  4652  4655      1
  4567  4652  4656      1
  4568  4652  4657      1
  4569  4657  4658      1
  4570  4657  4659      1
  4571  4657  4660      1
  4572  4658  4661      1
  4573  4658  4662      1
  4574  4658  4663      1
  4575  4663  4664      1
  4576  4663  4665      1
  4577  4663  4666      1
  4578  4664  4667      1
  4579  4664  4668      1
  4580  4664  4669      1
  4581  4669  4670      1
  4582  4669  4671      1
  4583  4669  4672      1
  4584  4670  4673      1
  4585  4670  4674      1
  4586  4670  4675      1
  4587  4675  4676      1
  4588  4675  4677      1
  4589  4675  4678      1
  4590  4676  4679      1
  4591  4676  4680      1
  4592  4676  4681      1
  4593  4681  4682      1
  4594  4681  4683      1
  4595  4681  4684      1
  4596  4682  4685      1
  4597  4682  4686      1
  4598  4687  4688      1
  4599  4687  4689      1
  4600  4687  4690      1
  4601  4688  4691      1
  4602  4688  4692      1
  4603  4688  4693      1
  4604  4693  4694      1
  4605  4693  4695      1
  4606  4693  4696      1
  4607  4694  4697      1
  4608  4694  4698      1
  4609  4694  4699      1
  4610  4699  4700      1
  4611  4699  4701      1
  4612  4699  4702      1
  4613  4700  4703      1
  4614  4700  4704      1
  4615  4700  4705      1
  4616  4705  4706      1
  4617  4705  4707      1
  4618  4705  4708      1
  4619  4706  4709      1
  4620  4706  4710      1
  4621  4706  4711      1
  4622  4711  4712      1
  4623  4711  4713      1
  4624  4711  4714      1
  4625  4712  4715      1
  4626  4712  4716      1
  4627  4712  4717      1
  4628  4717  4718      1
  4629  4717  4719      1
  4630  4717  4720      1
  4631  4718  4721      1
  4632  4718  4722      1
  4633  4718  4723      1
  4634  4723  4724      1
  4635  4723  4725      1
  4636  4723  4726      1
  4637  4724  4727      1
  4638  4724  4728      1
  4639  4724  4729      1
  4640  4729  4730      1
  4641  4729  4731      1
  4642  4729  4732      1
  4643  4730  4733      1
  4644  4730  4734      1
  4645  4730  4735      1
  4646  4735  4736      1
  4647  4735  4737      1
  4648  4735  4738      1
  4649  4736  4739      1
  4650  4736  4740      1
  4651  4736  4741      1
  4652  4741  4742      1
  4653  4741  4743      1
  4654  4741  4744      1
  4655  4742  4745      1
  4656  4742  4746      1
  4657  4742  4747      1
  4658  4747  4748      1
  4659  4747  4749      1
  4660  4747  4750      1
  4661  4748  4751      1
  4662  4748  4752      1
  4663  4748  4753      1
  4664  4753  4754      1
  4665  4753  4755      1
  4666  4753  4756      1
  4667  4754  4757      1
  4668  4754  4758      1
  4669  4754  4759      1
  4670  4759  4760      1
  4671  4759  4761      1
  4672  4759  4762      1
  4673  4760  4763      1
  4674  4760  4764      1
  4675  4760  4765      1
  4676  4765  4766      1
  4677  4765  4767      1
  4678  4765  4768      1
  4679  4766  4769      1
  4680  4766  4770      1
  4681  4766  4771      1
  4682  4771  4772      1
  4683  4771  4773      1
  4684  4771  4774      1
  4685  4772  4775      1
  4686  4772  4776      1
  4687  4772  4777      1
  4688  4777  4778      1
  4689  4777  4779      1
  4690  4777  4780      1
  4691  4778  4781      1
  4692  4778  4782      1
  4693  4778  4783      1
  4694  4783  4784      1
  4695  4783  4785      1
  4696  4783  4786      1
  4697  4784  4787      1
  4698  4784  4788      1
  4699  4784  4789      1
  4700  4789  4790      1
  4701  4789  4791      1
  4702  4789  4792      1
  4703  4790  4793      1
  4704  4790  4794      1
  4705  4790  4795      1
  4706  4795  4796      1
  4707  4795  4797      1
  4708  4795  4798      1
  4709  4796  4799      1
  4710  4796  4800      1
  4711  4796  4801      1
  4712  4801  4802      1
  4713  4801  4803      1
  4714  4801  4804      1
  4715  4802  4805      1
  4716  4802  4806      1
  4717  4802  4807      1
  4718  4807  4808      1
  4719  4807  4809      1
  4720  4807  4810      1
  4721  4808  4811      1
  4722  4808  4812      1
  4723  4808  4813      1
  4724  4813  4814      1
  4725  4813  4815      1
  4726  4813  4816      1
  4727  4814  4817      1
  4728  4814  4818      1
  4729  4814  4819      1
  4730  4819  4820      1
  4731  4819  4821      1
  4732  4819  4822      1
  4733  4820  4823      1
  4734  4820  4824      1
  4735  4820  4825      1
  4736  4825  4826      1
  4737  4825  4827      1
  4738  4825  4828      1
  4739  4826  4829      1
  4740  4826  4830      1
  4741  4826  4831      1
  4742  4831  4832      1
  4743  4831  4833      1
  4744  4831  4834      1
  4745  4832  4835      1
  4746  4832  4836      1
  4747  4832  4837      1
  4748  4837  4838      1
  4749  4837  4839      1
  4750  4837  4840      1
  4751  4838  4841      1
  4752  4838  4842      1
  4753  4838  4843      1
  4754  4843  4844      1
  4755  4843  4845      1
  4756  4843  4846      1
  4757  4844  4847      1
  4758  4844  4848      1
  4759  4844  4849      1
  4760  4849  4850      1
  4761  4849  4851      1
  4762  4849  4852      1
  4763  4850  4853      1
  4764  4850  4854      1
  4765  4850  4855      1
  4766  4855  4856      1
  4767  4855  4857      1
  4768  4855  4858      1
  4769  4856  4859      1
  4770  4856  4860      1
  4771  4856  4861      1
  4772  4861  4862      1
  4773  4861  4863      1
  4774  4861  4864      1
  4775  4862  4865      1
  4776  4862  4866      1
  4777  4862  4867      1
  4778  4867  4868      1
  4779  4867  4869      1
  4780  4867  4870      1
  4781  4868  4871      1
  4782  4868  4872      1
  4783  4868  4873      1
  4784  4873  4874      1
  4785  4873  4875      1
  4786  4873  4876      1
  4787  4874  4877      1
  4788  4874  4878      1
  4789  4874  4879      1
  4790  4879  4880      1
  4791  4879  4881      1
  4792  4879  4882      1
  4793  4880  4883      1
  4794  4880  4884      1
  4795  4880  4885      1
  4796  4885  4886      1
  4797  4885  4887      1
  4798  4885  4888      1
  4799  4886  4889      1
  4800  4886  4890      1
  4801  4886  4891      1
  4802  4891  4892      1
  4803  4891  4893      1
  4804  4891  4894      1
  4805  4892  4895      1
  4806  4892  4896      1
  4807  4892  4897      1
  4808  4897  4898      1
  4809  4897  4899      1
  4810  4897  4900      1
  4811  4898  4901      1
  4812  4898  4902      1
  4813  4898  4903      1
  4814  4903  4904      1
  4815  4903  4905      1
  4816  4903  4906      1
  4817  4904  4907      1
  4818  4904  4908      1
  4819  4904  4909      1
  4820  4909  4910      1
  4821  4909  4911      1
  4822  4909  4912      1
  4823  4910  4913      1
  4824  4910  4914      1
  4825  4910  4915      1
  4826  4915  4916      1
  4827  4915  4917      1
  4828  4915  4918      1
  4829  4916  4919      1
  4830  4916  4920      1
  4831  4916  4921      1
  4832  4921  4922      1
  4833  4921  4923      1
  4834  4921  4924      1
  4835  4922  4925      1
  4836  4922  4926      1
  4837  4922  4927      1
  4838  4927  4928      1
  4839  4927  4929      1
  4840  4927  4930      1
  4841  4928  4931      1
  4842  4928  4932      1
  4843  4928  4933      1
  4844  4933  4934      1
  4845  4933  4935      1
  4846  4933  4936      1
  4847  4934  4937      1
  4848  4934  4938      1
  4849  4934  4939      1
  4850  4939  4940      1
  4851  4939  4941      1
  4852  4939  4942      1
  4853  4940  4943      1
  4854  4940  4944      1
  4855  4940  4945      1
  4856  4945  4946      1
  4857  4945  4947      1
  4858  4945  4948      1
  4859  4946  4949      1
  4860  4946  4950      1
  4861  4946  4951      1
  4862  4951  4952      1
  4863  4951  4953      1
  4864  4951  4954      1
  4865  4952  4955      1
  4866  4952  4956      1
  4867  4952  4957      1
  4868  4957  4958      1
  4869  4957  4959      1
  4870  4957  4960      1
  4871  4958  4961      1
  4872  4958  4962      1
  4873  4958  4963      1
  4874  4963  4964      1
  4875  4963  4965      1
  4876  4963  4966      1
  4877  4964  4967      1
  4878  4964  4968      1
  4879  4964  4969      1
  4880  4969  4970      1
  4881  4969  4971      1
  4882  4969  4972      1
  4883  4970  4973      1
  4884  4970  4974      1
  4885  4970  4975      1
  4886  4975  4976      1
  4887  4975  4977      1
  4888  4975  4978      1
  4889  4976  4979      1
  4890  4976  4980      1
  4891  4976  4981      1
  4892  4981  4982      1
  4893  4981  4983      1
  4894  4981  4984      1
  4895  4982  4985      1
  4896  4982  4986      1
  4897  4982  4987      1
  4898  4987  4988      1
  4899  4987  4989      1
  4900  4987  4990      1
  4901  4988  4991      1
  4902  4988  4992      1
  4903  4988  4993      1
  4904  4993  4994      1
  4905  4993  4995      1
  4906  4993  4996      1
  4907  4994  4997      1
  4908  4994  4998      1
  4909  4994  4999      1
  4910  4999  5000      1
  4911  4999  5001      1
  4912  4999  5002      1
  4913  5000  5003      1
  4914  5000  5004      1
  4915  5000  5005      1
  4916  5005  5006      1
  4917  5005  5007      1
  4918  5005  5008      1
  4919  5006  5009      1
  4920  5006  5010      1
  4921  5006  5011      1
  4922  5011  5012      1
  4923  5011  5013      1
  4924  5011  5014      1
  4925  5012  5015      1
  4926  5012  5016      1
  4927  5012  5017      1
  4928  5017  5018      1
  4929  5017  5019      1
  4930  5017  5020      1
  4931  5018  5021      1
  4932  5018  5022      1
  4933  5018  5023      1
  4934  5023  5024      1
  4935  5023  5025      1
  4936  5023  5026      1
  4937  5024  5027      1
  4938  5024  5028      1
  4939  5024  5029      1
  4940  5029  5030      1
  4941  5029  5031      1
  4942  5029  5032      1
  4943  5030  5033      1
  4944  5030  5034      1
  4945  5035  5036      1
  4946  5035  5037      1
  4947  5035  5038      1
  4948  5036  5039      1
  4949  5036  5040      1
  4950  5036  5041      1
  4951  5041  5042      1
  4952  5041  5043      1
  4953  5041  5044      1
  4954  5042  5045      1
  4955  5042  5046      1
  4956  5042  5047      1
  4957  5047  5048      1
  4958  5047  5049      1
  4959  5047  5050      1
  4960  5048  5051      1
  4961  5048  5052      1
  4962  5048  5053      1
  4963  5053  5054      1
  4964  5053  5055      1
  4965  5053  5056      1
  4966  5054  5057      1
  4967  5054  5058      1
  4968  5054  5059      1
  4969  5059  5060      1
  4970  5059  5061      1
  4971  5059  5062      1
  4972  5060  5063      1
  4973  5060  5064      1
  4974  5060  5065      1
  4975  5065  5066      1
  4976  5065  5067      1
  4977  5065  5068      1
  4978  5066  5069      1
  4979  5066  5070      1
  4980  5066  5071      1
  4981  5071  5072      1
  4982  5071  5073      1
  4983  5071  5074      1
  4984  5072  5075      1
  4985  5072  5076      1
  4986  5072  5077      1
  4987  5077  5078      1
  4988  5077  5079      1
  4989  5077  5080      1
  4990  5078  5081      1
  4991  5078  5082      1
  4992  5078  5083      1
  4993  5083  5084      1
  4994  5083  5085      1
  4995  5083  5086      1
  4996  5084  5087      1
  4997  5084  5088      1
  4998  5084  5089      1
  4999  5089  5090      1
  5000  5089  5091      1
  5001  5089  5092      1
  5002  5090  5093      1
  5003  5090  5094      1
  5004  5095  5096      1
  5005  5095  5097      1
  5006  5095  5098      1
  5007  5096  5099      1
  5008  5096  5100      1
  5009  5096  5101      1
  5010  5101  5102      1
  5011  5101  5103      1
  5012  5101  5104      1
  5013  5102  5105      1
  5014  5102  5106      1
  5015  5102  5107      1
  5016  5107  5108      1
  5017  5107  5109      1
  5018  5107  5110      1
  5019  5108  5111      1
  5020  5108  5112      1
  5021  5108  5113      1
  5022  5113  5114      1
  5023  5113  5115      1
  5024  5113  5116      1
  5025  5114  5117      1
  5026  5114  5118      1
  5027  5114  5119      1
  5028  5119  5120      1
  5029  5119  5121      1
  5030  5119  5122      1
  5031  5120  5123      1
  5032  5120  5124      1
  5033  5120  5125      1
  5034  5125  5126      1
  5035  5125  5127      1
  5036  5125  5128      1
  5037  5126  5129      1
  5038  5126  5130      1
  5039  5126  5131      1
  5040  5131  5132      1
  5041  5131  5133      1
  5042  5131  5134      1
  5043  5132  5135      1
  5044  5132  5136      1
  5045  5132  5137      1
  5046  5137  5138      1
  5047  5137  5139      1
  5048  5137  5140      1
  5049  5138  5141      1
  5050  5138  5142      1
  5051  5138  5143      1
  5052  5143  5144      1
  5053  5143  5145      1
  5054  5143  5146      1
  5055  5144  5147      1
  5056  5144  5148      1
  5057  5144  5149      1
  5058  5149  5150      1
  5059  5149  5151      1
  5060  5149  5152      1
  5061  5150  5153      1
  5062  5150  5154      1
  5063  5150  5155      1
  5064  5155  5156      1
  5065  5155  5157      1
  5066  5155  5158      1
  5067  5156  5159      1
  5068  5156  5160      1
  5069  5156  5161      1
  5070  5161  5162      1
  5071  5161  5163      1
  5072  5161  5164      1
  5073  5162  5165      1
  5074  5162  5166      1
  5075  5162  5167      1
  5076  5167  5168      1
  5077  5167  5169      1
  5078  5167  5170      1
  5079  5168  5171      1
  5080  5168  5172      1
  5081  5168  5173      1
  5082  5173  5174      1
  5083  5173  5175      1
  5084  5173  5176      1
  5085  5174  5177      1
  5086  5174  5178      1
  5087  5174  5179      1
  5088  5179  5180      1
  5089  5179  5181      1
  5090  5179  5182      1
  5091  5180  5183      1
  5092  5180  5184      1
  5093  5180  5185      1
  5094  5185  5186      1
  5095  5185  5187      1
  5096  5185  5188      1
  5097  5186  5189      1
  5098  5186  5190      1
  5099  5186  5191      1
  5100  5191  5192      1
  5101  5191  5193      1
  5102  5191  5194      1
  5103  5192  5195      1
  5104  5192  5196      1
  5105  5192  5197      1
  5106  5197  5198      1
  5107  5197  5199      1
  5108  5197  5200      1
  5109  5198  5201      1
  5110  5198  5202      1
  5111  5198  5203      1
  5112  5203  5204      1
  5113  5203  5205      1
  5114  5203  5206      1
  5115  5204  5207      1
  5116  5204  5208      1
  5117  5204  5209      1
  5118  5209  5210      1
  5119  5209  5211      1
  5120  5209  5212      1
  5121  5210  5213      1
  5122  5210  5214      1
  5123  5210  5215      1
  5124  5215  5216      1
  5125  5215  5217      1
  5126  5215  5218      1
  5127  5216  5219      1
  5128  5216  5220      1
  5129  5216  5221      1
  5130  5221  5222      1
  5131  5221  5223      1
  5132  5221  5224      1
  5133  5222  5225      1
  5134  5222  5226      1
  5135  5222  5227      1
  5136  5227  5228      1
  5137  5227  5229      1
  5138  5227  5230      1
  5139  5228  5231      1
  5140  5228  5232      1
  5141  5228  5233      1
  5142  5233  5234      1
  5143  5233  5235      1
  5144  5233  5236      1
  5145  5234  5237      1
  5146  5234  5238      1
  5147  5239  5240      1
  5148  5239  5241      1
  5149  5239  5242      1
  5150  5240  5243      1
  5151  5240  5244      1
  5152  5240  5245      1
  5153  5245  5246      1
  5154  5245  5247      1
  5155  5245  5248      1
  5156  5246  5249      1
  5157  5246  5250      1
  5158  5246  5251      1
  5159  5251  5252      1
  5160  5251  5253      1
  5161  5251  5254      1
  5162  5252  5255      1
  5163  5252  5256      1
  5164  5252  5257      1
  5165  5257  5258      1
  5166  5257  5259      1
  5167  5257  5260      1
  5168  5258  5261      1
  5169  5258  5262      1
  5170  5258  5263      1
  5171  5263  5264      1
  5172  5263  5265      1
  5173  5263  5266      1
  5174  5264  5267      1
  5175  5264  5268      1
  5176  5264  5269      1
  5177  5269  5270      1
  5178  5269  5271      1
  5179  5269  5272      1
  5180  5270  5273      1
  5181  5270  5274      1
  5182  5270  5275      1
  5183  5275  5276      1
  5184  5275  5277      1
  5185  5275  5278      1
  5186  5276  5279      1
  5187  5276  5280      1
  5188  5276  5281      1
  5189  5281  5282      1
  5190  5281  5283      1
  5191  5281  5284      1
  5192  5282  5285      1
  5193  5282  5286      1
  5194  5282  5287      1
  5195  5287  5288      1
  5196  5287  5289      1
  5197  5287  5290      1
  5198  5288  5291      1
  5199  5288  5292      1
  5200  5288  5293      1
  5201  5293  5294      1
  5202  5293  5295      1
  5203  5293  5296      1
  5204  5294  5297      1
  5205  5294  5298      1
  5206  5294  5299      1
  5207  5299  5300      1
  5208  5299  5301      1
  5209  5299  5302      1
  5210  5300  5303      1
  5211  5300  5304      1
  5212  5300  5305      1
  5213  5305  5306      1
  5214  5305  5307      1
  5215  5305  5308      1
  5216  5306  5309      1
  5217  5306  5310      1
  5218  5306  5311      1
  5219  5311  5312      1
  5220  5311  5313      1
  5221  5311  5314      1
  5222  5312  5315      1
  5223  5312  5316      1
  5224  5312  5317      1
  5225  5317  5318      1
  5226  5317  5319      1
  5227  5317  5320      1
  5228  5318  5321      1
  5229  5318  5322      1
  5230  5318  5323      1
  5231  5323  5324      1
  5232  5323  5325      1
  5233  5323  5326      1
  5234  5324  5327      1
  5235  5324  5328      1
  5236  5329  5330      1
  5237  5329  5331      1
  5238  5329  5332      1
  5239  5330  5333      1
  5240  5330  5334      1
  5241  5330  5335      1
  5242  5335  5336      1
  5243  5335  5337      1
  5244  5335  5338      1
  5245  5336  5339      1
  5246  5336  5340      1
  5247  5336  5341      1
  5248  5341  5342      1
  5249  5341  5343      1
  5250  5341  5344      1
  5251  5342  5345      1
  5252  5342  5346      1
  5253  5342  5347      1
  5254  5347  5348      1
  5255  5347  5349      1
  5256  5347  5350      1
  5257  5348  5351      1
  5258  5348  5352      1
  5259  5348  5353      1
  5260  5353  5354      1
  5261  5353  5355      1
  5262  5353  5356      1
  5263  5354  5357      1
  5264  5354  5358      1
  5265  5354  5359      1
  5266  5359  5360      1
  5267  5359  5361      1
  5268  5359  5362      1
  5269  5360  5363      1
  5270  5360  5364      1
  5271  5360  5365      1
  5272  5365  5366      1
  5273  5365  5367      1
  5274  5365  5368      1
  5275  5366  5369      1
  5276  5366  5370      1
  5277  5366  5371      1
  5278  5371  5372      1
  5279  5371  5373      1
  5280  5371  5374      1
  5281  5372  5375      1
  5282  5372  5376      1
  5283  5372  5377      1
  5284  5377  5378      1
  5285  5377  5379      1
  5286  5377  5380      1
  5287  5378  5381      1
  5288  5378  5382      1
  5289  5378  5383      1
  5290  5383  5384      1
  5291  5383  5385      1
  5292  5383  5386      1
  5293  5384  5387      1
  5294  5384  5388      1
  5295  5384  5389      1
  5296  5389  5390      1
  5297  5389  5391      1
  5298  5389  5392      1
  5299  5390  5393      1
  5300  5390  5394      1
  5301  5390  5395      1
  5302  5395  5396      1
  5303  5395  5397      1
  5304  5395  5398      1
  5305  5396  5399      1
  5306  5396  5400      1
  5307  5401  5402      1
  5308  5401  5403      1
  5309  5401  5404      1
  5310  5402  5405      1
  5311  5402  5406      1
  5312  5402  5407      1
  5313  5407  5408      1
  5314  5407  5409      1
  5315  5407  5410      1
  5316  5408  5411      1
  5317  5408  5412      1
  5318  5408  5413      1
  5319  5413  5414      1
  5320  5413  5415      1
  5321  5413  5416      1
  5322  5414  5417      1
  5323  5414  5418      1
  5324  5414  5419      1
  5325  5419  5420      1
  5326  5419  5421      1
  5327  5419  5422      1
  5328  5420  5423      1
  5329  5420  5424      1
  5330  5420  5425      1
  5331  5425  5426      1
  5332  5425  5427      1
  5333  5425  5428      1
  5334  5426  5429      1
  5335  5426  5430      1
  5336  5426  5431      1
  5337  5431  5432      1
  5338  5431  5433      1
  5339  5431  5434      1
  5340  5432  5435      1
  5341  5432  5436      1
  5342  5432  5437      1
  5343  5437  5438      1
  5344  5437  5439      1
  5345  5437  5440      1
  5346  5438  5441      1
  5347  5438  5442      1
  5348  5438  5443      1
  5349  5443  5444      1
  5350  5443  5445      1
  5351  5443  5446      1
  5352  5444  5447      1
  5353  5444  5448      1
  5354  5444  5449      1
  5355  5449  5450      1
  5356  5449  5451      1
  5357  5449  5452      1
  5358  5450  5453      1
  5359  5450  5454      1
  5360  5450  5455      1
  5361  5455  5456      1
  5362  5455  5457      1
  5363  5455  5458      1
  5364  5456  5459      1
  5365  5456  5460      1
  5366  5456  5461      1
  5367  5461  5462      1
  5368  5461  5463      1
  5369  5461  5464      1
  5370  5462  5465      1
  5371  5462  5466      1
  5372  5462  5467      1
  5373  5467  5468      1
  5374  5467  5469      1
  5375  5467  5470      1
  5376  5468  5471      1
  5377  5468  5472      1
  5378  5468  5473      1
  5379  5473  5474      1
  5380  5473  5475      1
  5381  5473  5476      1
  5382  5474  5477      1
  5383  5474  5478      1
  5384  5474  5479      1
  5385  5479  5480      1
  5386  5479  5481      1
  5387  5479  5482      1
  5388  5480  5483      1
  5389  5480  5484      1
  5390  5480  5485      1
  5391  5485  5486      1
  5392  5485  5487      1
  5393  5485  5488      1
  5394  5486  5489      1
  5395  5486  5490      1
  5396  5486  5491      1
  5397  5491  5492      1
  5398  5491  5493      1
  5399  5491  5494      1
  5400  5492  5495      1
  5401  5492  5496      1
  5402  5492  5497      1
  5403  5497  5498      1
  5404  5497  5499      1
  5405  5497  5500      1
  5406  5498  5501      1
  5407  5498  5502      1
  5408  5498  5503      1
  5409  5503  5504      1
  5410  5503  5505      1
  5411  5503  5506      1
  5412  5504  5507      1
  5413  5504  5508      1
  5414  5504  5509      1
  5415  5509  5510      1
  5416  5509  5511      1
  5417  5509  5512      1
  5418  5510  5513      1
  5419  5510  5514      1
  5420  5510  5515      1
  5421  5515  5516      1
  5422  5515  5517      1
  5423  5515  5518      1
  5424  5516  5519      1
  5425  5516  5520      1
  5426  5516  5521      1
  5427  5521  5522      1
  5428  5521  5523      1
  5429  5521  5524      1
  5430  5522  5525      1
  5431  5522  5526      1
  5432  5522  5527      1
  5433  5527  5528      1
  5434  5527  5529      1
  5435  5527  5530      1
  5436  5528  5531      1
  5437  5528  5532      1
  5438  5528  5533      1
  5439  5533  5534      1
  5440  5533  5535      1
  5441  5533  5536      1
  5442  5534  5537      1
  5443  5534  5538      1
  5444  5534  5539      1
  5445  5539  5540      1
  5446  5539  5541      1
  5447  5539  5542      1
  5448  5540  5543      1
  5449  5540  5544      1
  5450  5540  5545      1
  5451  5545  5546      1
  5452  5545  5547      1
  5453  5545  5548      1
  5454  5546  5549      1
  5455  5546  5550      1
  5456  5546  5551      1
  5457  5551  5552      1
  5458  5551  5553      1
  5459  5551  5554      1
  5460  5552  5555      1
  5461  5552  5556      1
  5462  5552  5557      1
  5463  5557  5558      1
  5464  5557  5559      1
  5465  5557  5560      1
  5466  5558  5561      1
  5467  5558  5562      1
  5468  5558  5563      1
  5469  5563  5564      1
  5470  5563  5565      1
  5471  5563  5566      1
  5472  5564  5567      1
  5473  5564  5568      1
  5474  5564  5569      1
  5475  5569  5570      1
  5476  5569  5571      1
  5477  5569  5572      1
  5478  5570  5573      1
  5479  5570  5574      1
  5480  5570  5575      1
  5481  5575  5576      1
  5482  5575  5577      1
  5483  5575  5578      1
  5484  5576  5579      1
  5485  5576  5580      1
  5486  5576  5581      1
  5487  5581  5582      1
  5488  5581  5583      1
  5489  5581  5584      1
  5490  5582  5585      1
  5491  5582  5586      1
  5492  5582  5587      1
  5493  5587  5588      1
  5494  5587  5589      1
  5495  5587  5590      1
  5496  5588  5591      1
  5497  5588  5592      1
  5498  5588  5593      1
  5499  5593  5594      1
  5500  5593  5595      1
  5501  5593  5596      1
  5502  5594  5597      1
  5503  5594  5598      1
  5504  5594  5599      1
  5505  5599  5600      1
  5506  5599  5601      1
  5507  5599  5602      1
  5508  5600  5603      1
  5509  5600  5604      1
  5510  5600  5605      1
  5511  5605  5606      1
  5512  5605  5607      1
  5513  5605  5608      1
  5514  5606  5609      1
  5515  5606  5610      1
  5516  5606  5611      1
  5517  5611  5612      1
  5518  5611  5613      1
  5519  5611  5614      1
  5520  5612  5615      1
  5521  5612  5616      1
  5522  5612  5617      1
  5523  5617  5618      1
  5524  5617  5619      1
  5525  5617  5620      1
  5526  5618  5621      1
  5527  5618  5622      1
  5528  5618  5623      1
  5529  5623  5624      1
  5530  5623  5625      1
  5531  5623  5626      1
  5532  5624  5627      1
  5533  5624  5628      1
  5534  5624  5629      1
  5535  5629  5630      1
  5536  5629  5631      1
  5537  5629  5632      1
  5538  5630  5633      1
  5539  5630  5634      1
  5540  5630  5635      1
  5541  5635  5636      1
  5542  5635  5637      1
  5543  5635  5638      1
  5544  5636  5639      1
  5545  5636  5640      1
  5546  5636  5641      1
  5547  5641  5642      1
  5548  5641  5643      1
  5549  5641  5644      1
  5550  5642  5645      1
  5551  5642  5646      1
  5552  5642  5647      1
  5553  5647  5648      1
  5554  5647  5649      1
  5555  5647  5650      1
  5556  5648  5651      1
  5557  5648  5652      1
  5558  5648  5653      1
  5559  5653  5654      1
  5560  5653  5655      1
  5561  5653  5656      1
  5562  5654  5657      1
  5563  5654  5658      1
  5564  5654  5659      1
  5565  5659  5660      1
  5566  5659  5661      1
  5567  5659  5662      1
  5568  5660  5663      1
  5569  5660  5664      1
  5570  5660  5665      1
  5571  5665  5666      1
  5572  5665  5667      1
  5573  5665  5668      1
  5574  5666  5669      1
  5575  5666  5670      1
  5576  5666  5671      1
  5577  5671  5672      1
  5578  5671  5673      1
  5579  5671  5674      1
  5580  5672  5675      1
  5581  5672  5676      1
  5582  5672  5677      1
  5583  5677  5678      1
  5584  5677  5679      1
  5585  5677  5680      1
  5586  5678  5681      1
  5587  5678  5682      1
  5588  5678  5683      1
  5589  5683  5684      1
  5590  5683  5685      1
  5591  5683  5686      1
  5592  5684  5687      1
  5593  5684  5688      1
  5594  5689  5690      1
  5595  5689  5691      1
  5596  5689  5692      1
  5597  5690  5693      1
  5598  5690  5694      1
  5599  5690  5695      1
  5600  5695  5696      1
  5601  5695  5697      1
  5602  5695  5698      1
  5603  5696  5699      1
  5604  5696  5700      1
  5605  5696  5701      1
  5606  5701  5702      1
  5607  5701  5703      1
  5608  5701  5704      1
  5609  5702  5705      1
  5610  5702  5706      1
  5611  5702  5707      1
  5612  5707  5708      1
  5613  5707  5709      1
  5614  5707  5710      1
  5615  5708  5711      1
  5616  5708  5712      1
  5617  5708  5713      1
  5618  5713  5714      1
  5619  5713  5715      1
  5620  5713  5716      1
  5621  5714  5717      1
  5622  5714  5718      1
  5623  5714  5719      1
  5624  5719  5720      1
  5625  5719  5721      1
  5626  5719  5722      1
  5627  5720  5723      1
  5628  5720  5724      1
  5629  5720  5725      1
  5630  5725  5726      1
  5631  5725  5727      1
  5632  5725  5728      1
  5633  5726  5729      1
  5634  5726  5730      1
  5635  5726  5731      1
  5636  5731  5732      1
  5637  5731  5733      1
  5638  5731  5734      1
  5639  5732  5735      1
  5640  5732  5736      1
  5641  5732  5737      1
  5642  5737  5738      1
  5643  5737  5739      1
  5644  5737  5740      1
  5645  5738  5741      1
  5646  5738  5742      1
  5647  5738  5743      1
  5648  5743  5744      1
  5649  5743  5745      1
  5650  5743  5746      1
  5651  5744  5747      1
  5652  5744  5748      1
  5653  5749  5750      1
  5654  5749  5751      1
  5655  5749  5752      1
  5656  5750  5753      1
  5657  5750  5754      1
  5658  5750  5755      1
  5659  5755  5756      1
  5660  5755  5757      1
  5661  5755  5758      1
  5662  5756  5759      1
  5663  5756  5760      1
  5664  5756  5761      1
  5665  5761  5762      1
  5666  5761  5763      1
  5667  5761  5764      1
  5668  5762  5765      1
  5669  5762  5766      1
  5670  5762  5767      1
  5671  5767  5768      1
  5672  5767  5769      1
  5673  5767  5770      1
  5674  5768  5771      1
  5675  5768  5772      1
  5676  5768  5773      1
  5677  5773  5774      1
  5678  5773  5775      1
  5679  5773  5776      1
  5680  5774  5777      1
  5681  5774  5778      1
  5682  5774  5779      1
  5683  5779  5780      1
  5684  5779  5781      1
  5685  5779  5782      1
  5686  5780  5783      1
  5687  5780  5784      1
  5688  5780  5785      1
  5689  5785  5786      1
  5690  5785  5787      1
  5691  5785  5788      1
  5692  5786  5789      1
  5693  5786  5790      1
  5694  5786  5791      1
  5695  5791  5792      1
  5696  5791  5793      1
  5697  5791  5794      1
  5698  5792  5795      1
  5699  5792  5796      1
  5700  5792  5797      1
  5701  5797  5798      1
  5702  5797  5799      1
  5703  5797  5800      1
  5704  5798  5801      1
  5705  5798  5802      1
  5706  5798  5803      1
  5707  5803  5804      1
  5708  5803  5805      1
  5709  5803  5806      1
  5710  5804  5807      1
  5711  5804  5808      1
  5712  5804  5809      1
  5713  5809  5810      1
  5714  5809  5811      1
  5715  5809  5812      1
  5716  5810  5813      1
  5717  5810  5814      1
  5718  5810  5815      1
  5719  5815  5816      1
  5720  5815  5817      1
  5721  5815  5818      1
  5722  5816  5819      1
  5723  5816  5820      1
  5724  5816  5821      1
  5725  5821  5822      1
  5726  5821  5823      1
  5727  5821  5824      1
  5728  5822  5825      1
  5729  5822  5826      1
  5730  5822  5827      1
  5731  5827  5828      1
  5732  5827  5829      1
  5733  5827  5830      1
  5734  5828  5831      1
  5735  5828  5832      1
  5736  5828  5833      1
  5737  5833  5834      1
  5738  5833  5835      1
  5739  5833  5836      1
  5740  5834  5837      1
  5741  5834  5838      1
  5742  5834  5839      1
  5743  5839  5840      1
  5744  5839  5841      1
  5745  5839  5842      1
  5746  5840  5843      1
  5747  5840  5844      1
  5748  5840  5845      1
  5749  5845  5846      1
  5750  5845  5847      1
  5751  5845  5848      1
  5752  5846  5849      1
  5753  5846  5850      1
  5754  5851  5852      1
  5755  5851  5853      1
  5756  5851  5854      1
  5757  5852  5855      1
  5758  5852  5856      1
  5759  5852  5857      1
  5760  5857  5858      1
  5761  5857  5859      1
  5762  5857  5860      1
  5763  5858  5861      1
  5764  5858  5862      1
  5765  5858  5863      1
  5766  5863  5864      1
  5767  5863  5865      1
  5768  5863  5866      1
  5769  5864  5867      1
  5770  5864  5868      1
  5771  5864  5869      1
  5772  5869  5870      1
  5773  5869  5871      1
  5774  5869  5872      1
  5775  5870  5873      1
  5776  5870  5874      1
  5777  5870  5875      1
  5778  5875  5876      1
  5779  5875  5877      1
  5780  5875  5878      1
  5781  5876  5879      1
  5782  5876  5880      1
  5783  5876  5881      1
  5784  5881  5882      1
  5785  5881  5883      1
  5786  5881  5884      1
  5787  5882  5885      1
  5788  5882  5886      1
  5789  5882  5887      1
  5790  5887  5888      1
  5791  5887  5889      1
  5792  5887  5890      1
  5793  5888  5891      1
  5794  5888  5892      1
  5795  5888  5893      1
  5796  5893  5894      1
  5797  5893  5895      1
  5798  5893  5896      1
  5799  5894  5897      1
  5800  5894  5898      1
  5801  5894  5899      1
  5802  5899  5900      1
  5803  5899  5901      1
  5804  5899  5902      1
  5805  5900  5903      1
  5806  5900  5904      1
  5807  5900  5905      1
  5808  5905  5906      1
  5809  5905  5907      1
  5810  5905  5908      1
  5811  5906  5909      1
  5812  5906  5910      1
  5813  5906  5911      1
  5814  5911  5912      1
  5815  5911  5913      1
  5816  5911  5914      1
  5817  5912  5915      1
  5818  5912  5916      1
  5819  5912  5917      1
  5820  5917  5918      1
  5821  5917  5919      1
  5822  5917  5920      1
  5823  5918  5921      1
  5824  5918  5922      1
  5825  5918  5923      1
  5826  5923  5924      1
  5827  5923  5925      1
  5828  5923  5926      1
  5829  5924  5927      1
  5830  5924  5928      1
  5831  5924  5929      1
  5832  5929  5930      1
  5833  5929  5931      1
  5834  5929  5932      1
  5835  5930  5933      1
  5836  5930  5934      1
  5837  5930  5935      1
  5838  5935  5936      1
  5839  5935  5937      1
  5840  5935  5938      1
  5841  5936  5939      1
  5842  5936  5940      1
  5843  5936  5941      1
  5844  5941  5942      1
  5845  5941  5943      1
  5846  5941  5944      1
  5847  5942  5945      1
  5848  5942  5946      1
  5849  5942  5947      1
  5850  5947  5948      1
  5851  5947  5949      1
  5852  5947  5950      1
  5853  5948  5951      1
  5854  5948  5952      1
  5855  5948  5953      1
  5856  5953  5954      1
  5857  5953  5955      1
  5858  5953  5956      1
  5859  5954  5957      1
  5860  5954  5958      1
  5861  5954  5959      1
  5862  5959  5960      1
  5863  5959  5961      1
  5864  5959  5962      1
  5865  5960  5963      1
  5866  5960  5964      1
  5867  5960  5965      1
  5868  5965  5966      1
  5869  5965  5967      1
  5870  5965  5968      1
  5871  5966  5969      1
  5872  5966  5970      1
  5873  5966  5971      1
  5874  5971  5972      1
  5875  5971  5973      1
  5876  5971  5974      1
  5877  5972  5975      1
  5878  5972  5976      1
  5879  5972  5977      1
  5880  5977  5978      1
  5881  5977  5979      1
  5882  5977  5980      1
  5883  5978  5981      1
  5884  5978  5982      1
  5885  5978  5983      1
  5886  5983  5984      1
  5887  5983  5985      1
  5888  5983  5986      1
  5889  5984  5987      1
  5890  5984  5988      1
  5891  5984  5989      1
  5892  5989  5990      1
  5893  5989  5991      1
  5894  5989  5992      1
  5895  5990  5993      1
  5896  5990  5994      1
  5897  5990  5995      1
  5898  5995  5996      1
  5899  5995  5997      1
  5900  5995  5998      1
  5901  5996  5999      1
  5902  5996  6000      1
  5903  5996  6001      1
  5904  6001  6002      1
  5905  6001  6003      1
  5906  6001  6004      1
  5907  6002  6005      1
  5908  6002  6006      1
  5909  6002  6007      1
  5910  6007  6008      1
  5911  6007  6009      1
  5912  6007  6010      1
  5913  6008  6011      1
  5914  6008  6012      1
  5915  6008  6013      1
  5916  6013  6014      1
  5917  6013  6015      1
  5918  6013  6016      1
  5919  6014  6017      1
  5920  6014  6018      1
  5921  6014  6019      1
  5922  6019  6020      1
  5923  6019  6021      1
  5924  6019  6022      1
  5925  6020  6023      1
  5926  6020  6024      1
  5927  6020  6025      1
  5928  6025  6026      1
  5929  6025  6027      1
  5930  6025  6028      1
  5931  6026  6029      1
  5932  6026  6030      1
  5933  6026  6031      1
  5934  6031  6032      1
  5935  6031  6033      1
  5936  6031  6034      1
  5937  6032  6035      1
  5938  6032  6036      1
  5939  6032  6037      1
  5940  6037  6038      1
  5941  6037  6039      1
  5942  6037  6040      1
  5943  6038  6041      1
  5944  6038  6042      1
  5945  6038  6043      1
  5946  6043  6044      1
  5947  6043  6045      1
  5948  6043  6046      1
  5949  6044  6047      1
  5950  6044  6048      1
  5951  6044  6049      1
  5952  6049  6050      1
  5953  6049  6051      1
  5954  6049  6052      1
  5955  6050  6053      1
  5956  6050  6054      1
  5957  6050  6055      1
  5958  6055  6056      1
  5959  6055  6057      1
  5960  6055  6058      1
  5961  6056  6059      1
  5962  6056  6060      1
  5963  6056  6061      1
  5964  6061  6062      1
  5965  6061  6063      1
  5966  6061  6064      1
  5967  6062  6065      1
  5968  6062  6066      1
  5969  6062  6067      1
  5970  6067  6068      1
  5971  6067  6069      1
  5972  6067  6070      1
  5973  6068  6071      1
  5974  6068  6072      1
  5975  6068  6073      1
  5976  6073  6074      1
  5977  6073  6075      1
  5978  6073  6076      1
  5979  6074  6077      1
  5980  6074  6078      1
  5981  6074  6079      1
  5982  6079  6080      1
  5983  6079  6081      1
  5984  6079  6082      1
  5985  6080  6083      1
  5986  6080  6084      1
  5987  6080  6085      1
  5988  6085  6086      1
  5989  6085  6087      1
  5990  6085  6088      1
  5991  6086  6089      1
  5992  6086  6090      1
  5993  6086  6091      1
  5994  6091  6092      1
  5995  6091  6093      1
  5996  6091  6094      1
  5997  6092  6095      1
  5998  6092  6096      1
  5999  6092  6097      1
  6000  6097  6098      1
  6001  6097  6099      1
  6002  6097  6100      1
  6003  6098  6101      1
  6004  6098  6102      1
  6005  6098  6103      1
  6006  6103  6104      1
  6007  6103  6105      1
  6008  6103  6106      1
  6009  6104  6107      1
  6010  6104  6108      1
  6011  6104  6109      1
  6012  6109  6110      1
  6013  6109  6111      1
  6014  6109  6112      1
  6015  6110  6113      1
  6016  6110  6114      1
  6017  6110  6115      1
  6018  6115  6116      1
  6019  6115  6117      1
  6020  6115  6118      1
  6021  6116  6119      1
  6022  6116  6120      1
  6023  6116  6121      1
  6024  6121  6122      1
  6025  6121  6123      1
  6026  6121  6124      1
  6027  6122  6125      1
  6028  6122  6126      1
  6029  6122  6127      1
  6030  6127  6128      1
  6031  6127  6129      1
  6032  6127  6130      1
  6033  6128  6131      1
  6034  6128  6132      1
  6035  6128  6133      1
  6036  6133  6134      1
  6037  6133  6135      1
  6038  6133  6136      1
  6039  6134  6137      1
  6040  6134  6138      1
  6041  6134  6139      1
  6042  6139  6140      1
  6043  6139  6141      1
  6044  6139  6142      1
  6045  6140  6143      1
  6046  6140  6144      1
  6047  6140  6145      1
  6048  6145  6146      1
  6049  6145  6147      1
  6050  6145  6148      1
  6051  6146  6149      1
  6052  6146  6150      1
  6053  6146  6151      1
  6054  6151  6152      1
  6055  6151  6153      1
  6056  6151  6154      1
  6057  6152  6155      1
  6058  6152  6156      1
  6059  6152  6157      1
  6060  6157  6158      1
  6061  6157  6159      1
  6062  6157  6160      1
  6063  6158  6161      1
  6064  6158  6162      1
  6065  6158  6163      1
  6066  6163  6164      1
  6067  6163  6165      1
  6068  6163  6166      1
  6069  6164  6167      1
  6070  6164  6168      1
  6071  6164  6169      1
  6072  6169  6170      1
  6073  6169  6171      1
  6074  6169  6172      1
  6075  6170  6173      1
  6076  6170  6174      1
  6077  6170  6175      1
  6078  6175  6176      1
  6079  6175  6177      1
  6080  6175  6178      1
  6081  6176  6179      1
  6082  6176  6180      1
  6083  6176  6181      1
  6084  6181  6182      1
  6085  6181  6183      1
  6086  6181  6184      1
  6087  6182  6185      1
  6088  6182  6186      1
  6089  6182  6187      1
  6090  6187  6188      1
  6091  6187  6189      1
  6092  6187  6190      1
  6093  6188  6191      1
  6094  6188  6192      1
  6095  6188  6193      1
  6096  6193  6194      1
  6097  6193  6195      1
  6098  6193  6196      1
  6099  6194  6197      1
  6100  6194  6198      1
  6101  6194  6199      1
  6102  6199  6200      1
  6103  6199  6201      1
  6104  6199  6202      1
  6105  6200  6203      1
  6106  6200  6204      1
  6107  6200  6205      1
  6108  6205  6206      1
  6109  6205  6207      1
  6110  6205  6208      1
  6111  6206  6209      1
  6112  6206  6210      1
  6113  6206  6211      1
  6114  6211  6212      1
  6115  6211  6213      1
  6116  6211  6214      1
  6117  6212  6215      1
  6118  6212  6216      1
  6119  6212  6217      1
  6120  6217  6218      1
  6121  6217  6219      1
  6122  6217  6220      1
  6123  6218  6221      1
  6124  6218  6222      1
  6125  6218  6223      1
  6126  6223  6224      1
  6127  6223  6225      1
  6128  6223  6226      1
  6129  6224  6227      1
  6130  6224  6228      1
  6131  6224  6229      1
  6132  6229  6230      1
  6133  6229  6231      1
  6134  6229  6232      1
  6135  6230  6233      1
  6136  6230  6234      1
  6137  6230  6235      1
  6138  6235  6236      1
  6139  6235  6237      1
  6140  6235  6238      1
  6141  6236  6239      1
  6142  6236  6240      1
  6143  6236  6241      1
  6144  6241  6242      1
  6145  6241  6243      1
  6146  6241  6244      1
  6147  6242  6245      1
  6148  6242  6246      1
  6149  6242  6247      1
  6150  6247  6248      1
  6151  6247  6249      1
  6152  6247  6250      1
  6153  6248  6251      1
  6154  6248  6252      1
  6155  6253  6254      1
  6156  6253  6255      1
  6157  6253  6256      1
  6158  6254  6257      1
  6159  6254  6258      1
  6160  6254  6259      1
  6161  6259  6260      1
  6162  6259  6261      1
  6163  6259  6262      1
  6164  6260  6263      1
  6165  6260  6264      1
  6166  6260  6265      1
  6167  6265  6266      1
  6168  6265  6267      1
  6169  6265  6268      1
  6170  6266  6269      1
  6171  6266  6270      1
  6172  6266  6271      1
  6173  6271  6272      1
  6174  6271  6273      1
  6175  6271  6274      1
  6176  6272  6275      1
  6177  6272  6276      1
  6178  6272  6277      1
  6179  6277  6278      1
  6180  6277  6279      1
  6181  6277  6280      1
  6182  6278  6281      1
  6183  6278  6282      1
  6184  6278  6283      1
  6185  6283  6284      1
  6186  6283  6285      1
  6187  6283  6286      1
  6188  6284  6287      1
  6189  6284  6288      1
  6190  6284  6289      1
  6191  6289  6290      1
  6192  6289  6291      1
  6193  6289  6292      1
  6194  6290  6293      1
  6195  6290  6294      1
  6196  6290  6295      1
  6197  6295  6296      1
  6198  6295  6297      1
  6199  6295  6298      1
  6200  6296  6299      1
  6201  6296  6300      1
  6202  6296  6301      1
  6203  6301  6302      1
  6204  6301  6303      1
  6205  6301  6304      1
  6206  6302  6305      1
  6207  6302  6306      1
  6208  6302  6307      1
  6209  6307  6308      1
  6210  6307  6309      1
  6211  6307  6310      1
  6212  6308  6311      1
  6213  6308  6312      1
  6214  6308  6313      1
  6215  6313  6314      1
  6216  6313  6315      1
  6217  6313  6316      1
  6218  6314  6317      1
  6219  6314  6318      1
  6220  6314  6319      1
  6221  6319  6320      1
  6222  6319  6321      1
  6223  6319  6322      1
  6224  6320  6323      1
  6225  6320  6324      1
  6226  6320  6325      1
  6227  6325  6326      1
  6228  6325  6327      1
  6229  6325  6328      1
  6230  6326  6329      1
  6231  6326  6330      1
  6232  6326  6331      1
  6233  6331  6332      1
  6234  6331  6333      1
  6235  6331  6334      1
  6236  6332  6335      1
  6237  6332  6336      1
  6238  6332  6337      1
  6239  6337  6338      1
  6240  6337  6339      1
  6241  6337  6340      1
  6242  6338  6341      1
  6243  6338  6342      1
  6244  6338  6343      1
  6245  6343  6344      1
  6246  6343  6345      1
  6247  6343  6346      1
  6248  6344  6347      1
  6249  6344  6348      1
  6250  6344  6349      1
  6251  6349  6350      1
  6252  6349  6351      1
  6253  6349  6352      1
  6254  6350  6353      1
  6255  6350  6354      1
  6256  6350  6355      1
  6257  6355  6356      1
  6258  6355  6357      1
  6259  6355  6358      1
  6260  6356  6359      1
  6261  6356  6360      1
  6262  6356  6361      1
  6263  6361  6362      1
  6264  6361  6363      1
  6265  6361  6364      1
  6266  6362  6365      1
  6267  6362  6366      1
  6268  6362  6367      1
  6269  6367  6368      1
  6270  6367  6369      1
  6271  6367  6370      1
  6272  6368  6371      1
  6273  6368  6372      1
  6274  6368  6373      1
  6275  6373  6374      1
  6276  6373  6375      1
  6277  6373  6376      1
  6278  6374  6377      1
  6279  6374  6378      1
  6280  6374  6379      1
  6281  6379  6380      1
  6282  6379  6381      1
  6283  6379  6382      1
  6284  6380  6383      1
  6285  6380  6384      1
  6286  6380  6385      1
  6287  6385  6386      1
  6288  6385  6387      1
  6289  6385  6388      1
  6290  6386  6389      1
  6291  6386  6390      1
  6292  6386  6391      1
  6293  6391  6392      1
  6294  6391  6393      1
  6295  6391  6394      1
  6296  6392  6395      1
  6297  6392  6396      1
  6298  6392  6397      1
  6299  6397  6398      1
  6300  6397  6399      1
  6301  6397  6400      1
  6302  6398  6401      1
  6303  6398  6402      1
  6304  6398  6403      1
  6305  6403  6404      1
  6306  6403  6405      1
  6307  6403  6406      1
  6308  6404  6407      1
  6309  6404  6408      1
  6310  6404  6409      1
  6311  6409  6410      1
  6312  6409  6411      1
  6313  6409  6412      1
  6314  6410  6413      1
  6315  6410  6414      1
  6316  6410  6415      1
  6317  6415  6416      1
  6318  6415  6417      1
  6319  6415  6418      1
  6320  6416  6419      1
  6321  6416  6420      1
  6322  6416  6421      1
  6323  6421  6422      1
  6324  6421  6423      1
  6325  6421  6424      1
  6326  6422  6425      1
  6327  6422  6426      1
  6328  6422  6427      1
  6329  6427  6428      1
  6330  6427  6429      1
  6331  6427  6430      1
  6332  6428  6431      1
  6333  6428  6432      1
  6334  6433  6434      1
  6335  6433  6435      1
  6336  6433  6436      1
  6337  6434  6437      1
  6338  6434  6438      1
  6339  6434  6439      1
  6340  6439  6440      1
  6341  6439  6441      1
  6342  6439  6442      1
  6343  6440  6443      1
  6344  6440  6444      1
  6345  6440  6445      1
  6346  6445  6446      1
  6347  6445  6447      1
  6348  6445  6448      1
  6349  6446  6449      1
  6350  6446  6450      1
  6351  6446  6451      1
  6352  6451  6452      1
  6353  6451  6453      1
  6354  6451  6454      1
  6355  6452  6455      1
  6356  6452  6456      1
  6357  6452  6457      1
  6358  6457  6458      1
  6359  6457  6459      1
  6360  6457  6460      1
  6361  6458  6461      1
  6362  6458  6462      1
  6363  6458  6463      1
  6364  6463  6464      1
  6365  6463  6465      1
  6366  6463  6466      1
  6367  6464  6467      1
  6368  6464  6468      1
  6369  6464  6469      1
  6370  6469  6470      1
  6371  6469  6471      1
  6372  6469  6472      1
  6373  6470  6473      1
  6374  6470  6474      1
  6375  6470  6475      1
  6376  6475  6476      1
  6377  6475  6477      1
  6378  6475  6478      1
  6379  6476  6479      1
  6380  6476  6480      1
  6381  6476  6481      1
  6382  6481  6482      1
  6383  6481  6483      1
  6384  6481  6484      1
  6385  6482  6485      1
  6386  6482  6486      1
  6387  6482  6487      1
  6388  6487  6488      1
  6389  6487  6489      1
  6390  6487  6490      1
  6391  6488  6491      1
  6392  6488  6492      1
  6393  6488  6493      1
  6394  6493  6494      1
  6395  6493  6495      1
  6396  6493  6496      1
  6397  6494  6497      1
  6398  6494  6498      1
  6399  6494  6499      1
  6400  6499  6500      1
  6401  6499  6501      1
  6402  6499  6502      1
  6403  6500  6503      1
  6404  6500  6504      1
  6405  6500  6505      1
  6406  6505  6506      1
  6407  6505  6507      1
  6408  6505  6508      1
  6409  6506  6509      1
  6410  6506  6510      1
  6411  6506  6511      1
  6412  6511  6512      1
  6413  6511  6513      1
  6414  6511  6514      1
  6415  6512  6515      1
  6416  6512  6516      1
  6417  6512  6517      1
  6418  6517  6518      1
  6419  6517  6519      1
  6420  6517  6520      1
  6421  6518  6521      1
  6422  6518  6522      1
  6423  6518  6523      1
  6424  6523  6524      1
  6425  6523  6525      1
  6426  6523  6526      1
  6427  6524  6527      1
  6428  6524  6528      1
  6429  6524  6529      1
  6430  6529  6530      1
  6431  6529  6531      1
  6432  6529  6532      1
  6433  6530  6533      1
  6434  6530  6534      1
  6435  6530  6535      1
  6436  6535  6536      1
  6437  6535  6537      1
  6438  6535  6538      1
  6439  6536  6539      1
  6440  6536  6540      1
  6441  6536  6541      1
  6442  6541  6542      1
  6443  6541  6543      1
  6444  6541  6544      1
  6445  6542  6545      1
  6446  6542  6546      1
  6447  6542  6547      1
  6448  6547  6548      1
  6449  6547  6549      1
  6450  6547  6550      1
  6451  6548  6551      1
  6452  6548  6552      1
  6453  6548  6553      1
  6454  6553  6554      1
  6455  6553  6555      1
  6456  6553  6556      1
  6457  6554  6557      1
  6458  6554  6558      1
  6459  6554  6559      1
  6460  6559  6560      1
  6461  6559  6561      1
  6462  6559  6562      1
  6463  6560  6563      1
  6464  6560  6564      1
  6465  6560  6565      1
  6466  6565  6566      1
  6467  6565  6567      1
  6468  6565  6568      1
  6469  6566  6569      1
  6470  6566  6570      1
  6471  6566  6571      1
  6472  6571  6572      1
  6473  6571  6573      1
  6474  6571  6574      1
  6475  6572  6575      1
  6476  6572  6576      1
  6477  6572  6577      1
  6478  6577  6578      1
  6479  6577  6579      1
  6480  6577  6580      1
  6481  6578  6581      1
  6482  6578  6582      1
  6483  6578  6583      1
  6484  6583  6584      1
  6485  6583  6585      1
  6486  6583  6586      1
  6487  6584  6587      1
  6488  6584  6588      1
  6489  6584  6589      1
  6490  6589  6590      1
  6491  6589  6591      1
  6492  6589  6592      1
  6493  6590  6593      1
  6494  6590  6594      1
  6495  6590  6595      1
  6496  6595  6596      1
  6497  6595  6597      1
  6498  6595  6598      1
  6499  6596  6599      1
  6500  6596  6600      1
  6501  6596  6601      1
  6502  6601  6602      1
  6503  6601  6603      1
  6504  6601  6604      1
  6505  6602  6605      1
  6506  6602  6606      1
  6507  6602  6607      1
  6508  6607  6608      1
  6509  6607  6609      1
  6510  6607  6610      1
  6511  6608  6611      1
  6512  6608  6612      1
  6513  6608  6613      1
  6514  6613  6614      1
  6515  6613  6615      1
  6516  6613  6616      1
  6517  6614  6617      1
  6518  6614  6618      1
  6519  6614  6619      1
  6520  6619  6620      1
  6521  6619  6621      1
  6522  6619  6622      1
  6523  6620  6623      1
  6524  6620  6624      1
  6525  6620  6625      1
  6526  6625  6626      1
  6527  6625  6627      1
  6528  6625  6628      1
  6529  6626  6629      1
  6530  6626  6630      1
  6531  6626  6631      1
  6532  6631  6632      1
  6533  6631  6633      1
  6534  6631  6634      1
  6535  6632  6635      1
  6536  6632  6636      1
  6537  6632  6637      1
  6538  6637  6638      1
  6539  6637  6639      1
  6540  6637  6640      1
  6541  6638  6641      1
  6542  6638  6642      1
  6543  6638  6643      1
  6544  6643  6644      1
  6545  6643  6645      1
  6546  6643  6646      1
  6547  6644  6647      1
  6548  6644  6648      1
  6549  6644  6649      1
  6550  6649  6650      1
  6551  6649  6651      1
  6552  6649  6652      1
  6553  6650  6653      1
  6554  6650  6654      1
  6555  6650  6655      1
  6556  6655  6656      1
  6557  6655  6657      1
  6558  6655  6658      1
  6559  6656  6659      1
  6560  6656  6660      1
  6561  6656  6661      1
  6562  6661  6662      1
  6563  6661  6663      1
  6564  6661  6664      1
  6565  6662  6665      1
  6566  6662  6666      1
  6567  6662  6667      1
  6568  6667  6668      1
  6569  6667  6669      1
  6570  6667  6670      1
  6571  6668  6671      1
  6572  6668  6672      1
  6573  6668  6673      1
  6574  6673  6674      1
  6575  6673  6675      1
  6576  6673  6676      1
  6577  6674  6677      1
  6578  6674  6678      1
  6579  6674  6679      1
  6580  6679  6680      1
  6581  6679  6681      1
  6582  6679  6682      1
  6583  6680  6683      1
  6584  6680  6684      1
  6585  6680  6685      1
  6586  6685  6686      1
  6587  6685  6687      1
  6588  6685  6688      1
  6589  6686  6689      1
  6590  6686  6690      1
  6591  6686  6691      1
  6592  6691  6692      1
  6593  6691  6693      1
  6594  6691  6694      1
  6595  6692  6695      1
  6596  6692  6696      1
  6597  6692  6697      1
  6598  6697  6698      1
  6599  6697  6699      1
  6600  6697  6700      1
  6601  6698  6701      1
  6602  6698  6702      1
  6603  6698  6703      1
  6604  6703  6704      1
  6605  6703  6705      1
  6606  6703  6706      1
  6607  6704  6707      1
  6608  6704  6708      1
  6609  6704  6709      1
  6610  6709  6710      1
  6611  6709  6711      1
  6612  6709  6712      1
  6613  6710  6713      1
  6614  6710  6714      1
  6615  6710  6715      1
  6616  6715  6716      1
  6617  6715  6717      1
  6618  6715  6718      1
  6619  6716  6719      1
  6620  6716  6720      1
  6621  6716  6721      1
  6622  6721  6722      1
  6623  6721  6723      1
  6624  6721  6724      1
  6625  6722  6725      1
  6626  6722  6726      1
  6627  6722  6727      1
  6628  6727  6728      1
  6629  6727  6729      1
  6630  6727  6730      1
  6631  6728  6731      1
  6632  6728  6732      1
  6633  6728  6733      1
  6634  6733  6734      1
  6635  6733  6735      1
  6636  6733  6736      1
  6637  6734  6737      1
  6638  6734  6738      1
  6639  6734  6739      1
  6640  6739  6740      1
  6641  6739  6741      1
  6642  6739  6742      1
  6643  6740  6743      1
  6644  6740  6744      1
  6645    21   151      1
  6646    39   266      1
  6647   131   271      1
  6648    39   338      1
  6649    48   343      1
  6650    21   548      1
  6651     9   553      1
  6652    21   662      1
  6653   147   667      1
  6654     9   734      1
  6655    17   739      1
  6656     9   866      1
  6657    83   871      1
  6658    17   938      1
  6659     7   943      1
  6660    17  1070      1
  6661    63  1075      1
  6662     7  1250      1
  6663     4  1255      1
  6664     7  1346      1
  6665    23  1351      1
  6666     4  1406      1
  6667   103  1411      1
  6668    23  1484      1
  6669    25  1489      1
  6670    23  1586      1
  6671    45  1591      1
  6672    25  1694      1
  6673    27  1699      1
  6674    45  1772      1
  6675    42  1777      1
  6676    27  1844      1
  6677    60  1849      1
  6678    25  1988      1
  6679     2  1993      1
  6680    60  2066      1
  6681    11  2071      1
  6682     2  2144      1
  6683   119  2149      1
  6684    11  2228      1
  6685    69  2233      1
  6686     2  2408      1
  6687    79  2413      1
  6688    69  2474      1
  6689   115  2479      1
  6690    42  2570      1
  6691   127  2575      1
  6692     2  2666      1
  6693    15  2671      1
  6694    48  2768      1
  6695    19  2773      1
  6696    15  2888      1
  6697   107  2893      1
  6698    19  2972      1
  6699    95  2977      1
  6700    19  3074      1
  6701    30  3079      1
  6702    11  3230      1
  6703    51  3235      1
  6704    30  3308      1
  6705    99  3313      1
  6706    51  3512      1
  6707   123  3517      1
  6708    15  3638      1
  6709    13  3643      1
  6710     4  3770      1
  6711     1  3775      1
  6712    13  3992      1
  6713    75  3997      1
  6714     1  4124      1
  6715   135  4129      1
  6716     1  4232      1
  6717    91  4237      1
  6718     1  4328      1
  6719    33  4333      1
  6720     4  4568      1
  6721    87  4573      1
  6722    33  4682      1
  6723     3  4687      1
  6724    13  5030      1
  6725   111  5035      1
  6726     3  5090      1
  6727    66  5095      1
  6728     3  5234      1
  6729   139  5239      1
  6730    66  5324      1
  6731     5  5329      1
  6732     3  5396      1
  6733    36  5401      1
  6734     5  5684      1
  6735    57  5689      1
  6736     5  5744      1
  6737    54  5749      1
  6738    57  5846      1
  6739   143  5851      1
  6740     5  6248      1
  6741    71  6253      1
  6742    36  6428      1
  6743    54  6433      1
  6744    63  6740      1
