###
### Created by PolyChef-cpp17 on Thu Apr 17 15:39:32 2025
###

@<TRIPOS>MOLECULE
NO_INFO
6086 6126 1 0 0
SMALL
USER_CHARGES


@<TRIPOS>ATOM
      1 O          66.3546   24.7835   31.2736 O.3       0      C_A    0.0000
      2 C          66.6453   25.7359   32.1861 C.2       0      C_A    0.0000
      3 O          65.8533   26.1885   32.9836 O.2       0      C_A    0.0000
      4 C          68.1035   26.1522   32.0714 C.3       0      C_A    0.0000
      5 C          68.3380   27.0612   30.8522 C.3       0      C_A    0.0000
      6 C          69.7889   27.5651   30.6583 C.3       0      C_A    0.0000
      7 C          70.7771   26.3840   30.5812 C.3       0      C_A    0.0000
      8 C          69.8378   28.2347   29.3352 C.1       0      C_A    0.0000
      9 N          69.8665   28.7360   28.2908 N.1       0      C_A    0.0000
     10 C          70.1833   28.6023   31.7352 C.2       0      C_A    0.0000
     11 H          67.1296   24.5659   30.7300 H         0      C_A    0.0000
     12 H          68.3939   26.6764   33.0111 H         0      C_A    0.0000
     13 H          68.7198   25.2264   32.0158 H         0      C_A    0.0000
     14 H          68.0301   26.4901   29.9425 H         0      C_A    0.0000
     15 H          67.6514   27.9389   30.9194 H         0      C_A    0.0000
     16 H          71.7951   26.7256   30.2839 H         0      C_A    0.0000
     17 H          70.8788   25.8597   31.5572 H         0      C_A    0.0000
     18 H          70.4491   25.6296   29.8286 H         0      C_A    0.0000
     19 H          69.3914   28.7111   32.5085 H         0      C_A    0.0000
     20 H          70.3182   29.6147   31.2887 H         0      C_A    0.0000
     21 S          41.0493   34.2929    8.7662 S         1      C_B    0.0000
     22 S          41.0339   36.3842    8.5237 S         1      C_B    0.0000
     23 C          42.4186   33.4301    7.7224 C.3       1      C_B    0.0000
     24 C          42.7212   31.8973    8.1045 C.3       1      C_B    0.0000
     25 O          43.9656   31.1896    7.6563 O.3       1      C_B    0.0000
     26 C          43.8782   29.9615    6.9736 C.2       1      C_B    0.0000
     27 O          42.8530   29.6040    6.4233 O.2       1      C_B    0.0000
     28 C          45.1786   28.9579    6.9362 C.2       1      C_B    0.0000
     29 C          46.0391   28.9341    8.2237 C.3       1      C_B    0.0000
     30 C          46.0024   29.0159    5.5890 C.3       1      C_B    0.0000
     31 C          47.1016   30.0415    5.1811 C.2       1      C_B    0.0000
     32 C          39.2574   37.0812    8.6511 C.3       1      C_B    0.0000
     33 C          39.0678   38.6488    8.8525 C.3       1      C_B    0.0000
     34 O          37.7029   39.0923    8.7360 O.3       1      C_B    0.0000
     35 C          37.3190   40.4288    8.8910 C.2       1      C_B    0.0000
     36 C          35.7803   40.7260    8.6928 C.3       1      C_B    0.0000
     37 O          38.0755   41.3325    9.1667 O.2       1      C_B    0.0000
     38 C          35.5363   42.1079    7.9962 C.3       1      C_B    0.0000
     39 C          35.1529   39.6126    7.8312 C.3       1      C_B    0.0000
     40 C          35.1171   40.7553   10.0953 C.3       1      C_B    0.0000
     41 O          33.7563   41.1396   10.0592 O.3       1      C_B    0.0000
     42 O          34.2669   42.1703    7.3740 O.3       1      C_B    0.0000
     43 C          33.0594   41.1126   11.2436 C.2       1      C_B    0.0000
     44 C          31.5964   41.6049   11.1295 C.3       1      C_B    0.0000
     45 O          33.5271   40.7409   12.2978 O.2       1      C_B    0.0000
     46 C          31.2307   42.3443   12.4443 C.3       1      C_B    0.0000
     47 C          30.7066   40.3573   10.9300 C.3       1      C_B    0.0000
     48 C          31.4405   42.5729    9.9420 C.3       1      C_B    0.0000
     49 O          29.3521   40.7179   10.8709 O.3       1      C_B    0.0000
     50 O          29.9695   42.9621   12.3408 O.3       1      C_B    0.0000
     51 C          28.4249   39.7556   10.5911 C.2       1      C_B    0.0000
     52 C          26.9920   40.3048   10.6205 C.3       1      C_B    0.0000
     53 O          28.7066   38.5960   10.3718 O.2       1      C_B    0.0000
     54 C          26.8398   41.7639   10.1521 C.3       1      C_B    0.0000
     55 O          26.5123   41.7842    8.7885 O.3       1      C_B    0.0000
     56 C          25.2365   41.2540    8.5169 C.3       1      C_B    0.0000
     57 O          24.9577   40.1619    9.3596 O.3       1      C_B    0.0000
     58 C          26.1065   39.4364    9.7092 C.3       1      C_B    0.0000
     59 C          26.5181   40.1813   12.0826 C.3       1      C_B    0.0000
     60 C          25.2044   40.8084    7.0561 C.3       1      C_B    0.0000
     61 C          24.1522   42.3093    8.7253 C.3       1      C_B    0.0000
     62 C          29.0026   43.0442   13.3050 C.2       1      C_B    0.0000
     63 C          29.3591   42.8213   14.7967 C.3       1      C_B    0.0000
     64 O          27.8771   43.3514   12.9697 O.2       1      C_B    0.0000
     65 C          28.1621   43.2687   15.6747 C.3       1      C_B    0.0000
     66 O          27.2133   42.2338   15.7110 O.3       1      C_B    0.0000
     67 C          27.6517   41.1328   16.4665 C.3       1      C_B    0.0000
     68 O          29.0497   41.0078   16.3817 O.3       1      C_B    0.0000
     69 C          29.5732   41.3313   15.1174 C.3       1      C_B    0.0000
     70 C          30.5444   43.7090   15.2279 C.3       1      C_B    0.0000
     71 C          26.9649   39.8727   15.9462 C.3       1      C_B    0.0000
     72 C          27.2746   41.3148   17.9360 C.3       1      C_B    0.0000
     73 C          33.8604   43.3081    6.7231 C.2       1      C_B    0.0000
     74 C          32.5832   43.1044    5.8618 C.3       1      C_B    0.0000
     75 O          34.4489   44.3666    6.7756 O.2       1      C_B    0.0000
     76 C          32.0915   41.6414    5.9047 C.3       1      C_B    0.0000
     77 C          31.4991   44.0931    6.3683 C.3       1      C_B    0.0000
     78 C          32.9679   43.4750    4.4107 C.3       1      C_B    0.0000
     79 O          30.2807   43.9008    5.6879 O.3       1      C_B    0.0000
     80 O          31.1313   41.3824    4.9076 O.3       1      C_B    0.0000
     81 C          29.3990   44.9546    5.6498 C.2       1      C_B    0.0000
     82 C          29.2694   45.6439    4.4971 C.2       1      C_B    0.0000
     83 C          28.3526   45.1672    6.7553 C.3       1      C_B    0.0000
     84 C          30.2297   40.3533    4.8880 C.2       1      C_B    0.0000
     85 C          29.9009   39.5962    6.1980 C.3       1      C_B    0.0000
     86 O          29.6482   40.1059    3.8533 O.2       1      C_B    0.0000
     87 C          27.9846   46.6478    6.9775 C.3       1      C_B    0.0000
     88 O          26.8164   46.9754    6.2683 O.3       1      C_B    0.0000
     89 C          25.6763   46.2774    6.7109 C.3       1      C_B    0.0000
     90 O          25.9902   44.9511    7.0581 O.3       1      C_B    0.0000
     91 C          27.0706   44.4341    6.3279 C.3       1      C_B    0.0000
     92 C          28.8810   38.4522    5.9481 C.3       1      C_B    0.0000
     93 O          29.5690   37.2645    5.6575 O.3       1      C_B    0.0000
     94 C          30.2420   36.7483    6.7796 C.3       1      C_B    0.0000
     95 O          30.7462   37.7965    7.5686 O.3       1      C_B    0.0000
     96 C          31.1325   38.9207    6.8250 C.3       1      C_B    0.0000
     97 C          29.1722   40.5748    7.1423 C.3       1      C_B    0.0000
     98 C          28.8127   44.6033    8.1156 C.3       1      C_B    0.0000
     99 C          31.3836   35.8581    6.2921 C.3       1      C_B    0.0000
    100 C          29.3006   35.9167    7.6487 C.3       1      C_B    0.0000
    101 C          24.6480   46.2852    5.5807 C.3       1      C_B    0.0000
    102 C          25.0588   46.9618    7.9291 C.3       1      C_B    0.0000
    103 H          42.0605   33.4334    6.6693 H         1      C_B    0.0000
    104 H          43.3481   34.0379    7.7631 H         1      C_B    0.0000
    105 H          42.8318   31.9075    9.2153 H         1      C_B    0.0000
    106 H          41.8062   31.3024    7.8730 H         1      C_B    0.0000
    107 H          46.9463   28.2737    8.1241 H         1      C_B    0.0000
    108 H          46.3811   29.9326    8.5348 H         1      C_B    0.0000
    109 H          45.4610   28.4822    9.0688 H         1      C_B    0.0000
    110 H          46.6353   28.0772    5.5235 H         1      C_B    0.0000
    111 H          45.3381   28.9058    4.7000 H         1      C_B    0.0000
    112 H          47.2670   30.7064    6.0438 H         1      C_B    0.0000
    113 H          48.0806   29.5085    5.0098 H         1      C_B    0.0000
    114 H          38.7161   36.8268    7.7096 H         1      C_B    0.0000
    115 H          38.7091   36.5954    9.4941 H         1      C_B    0.0000
    116 H          39.4339   38.9536    9.8606 H         1      C_B    0.0000
    117 H          39.6604   39.2048    8.0907 H         1      C_B    0.0000
    118 H          36.2985   42.2628    7.1985 H         1      C_B    0.0000
    119 H          35.6207   42.9422    8.7300 H         1      C_B    0.0000
    120 H          35.5969   39.6136    6.8098 H         1      C_B    0.0000
    121 H          35.2927   38.6053    8.2796 H         1      C_B    0.0000
    122 H          34.0540   39.7410    7.7224 H         1      C_B    0.0000
    123 H          35.1965   39.7422   10.5500 H         1      C_B    0.0000
    124 H          35.6565   41.4847   10.7450 H         1      C_B    0.0000
    125 H          31.9868   43.1405   12.6259 H         1      C_B    0.0000
    126 H          31.2343   41.6162   13.2730 H         1      C_B    0.0000
    127 H          30.9918   39.8498    9.9795 H         1      C_B    0.0000
    128 H          30.8460   39.6470   11.7783 H         1      C_B    0.0000
    129 H          32.1168   43.4520   10.0342 H         1      C_B    0.0000
    130 H          31.6566   42.0661    8.9787 H         1      C_B    0.0000
    131 H          30.4028   42.9625    9.8645 H         1      C_B    0.0000
    132 H          27.7606   42.3695   10.2832 H         1      C_B    0.0000
    133 H          26.0510   42.3019   10.7200 H         1      C_B    0.0000
    134 H          26.6304   39.1193    8.7810 H         1      C_B    0.0000
    135 H          25.7782   38.5081   10.2293 H         1      C_B    0.0000
    136 H          26.6260   39.1400   12.4621 H         1      C_B    0.0000
    137 H          27.1096   40.8453   12.7505 H         1      C_B    0.0000
    138 H          25.4464   40.4628   12.1931 H         1      C_B    0.0000
    139 H          25.9841   40.0498    6.8240 H         1      C_B    0.0000
    140 H          24.2206   40.3583    6.7917 H         1      C_B    0.0000
    141 H          25.3739   41.6692    6.3703 H         1      C_B    0.0000
    142 H          23.1507   41.9113    8.4437 H         1      C_B    0.0000
    143 H          24.0736   42.6441    9.7831 H         1      C_B    0.0000
    144 H          24.3374   43.2132    8.1037 H         1      C_B    0.0000
    145 H          27.6725   44.1922   15.2955 H         1      C_B    0.0000
    146 H          28.4592   43.5185   16.7160 H         1      C_B    0.0000
    147 H          29.1183   40.6708   14.3481 H         1      C_B    0.0000
    148 H          30.6562   41.0830   15.1770 H         1      C_B    0.0000
    149 H          30.3526   44.7766   14.9755 H         1      C_B    0.0000
    150 H          30.7206   43.6456   16.3253 H         1      C_B    0.0000
    151 H          31.5104   43.4218   14.7676 H         1      C_B    0.0000
    152 H          27.1838   39.6778   14.8747 H         1      C_B    0.0000
    153 H          27.2877   38.9712   16.5149 H         1      C_B    0.0000
    154 H          25.8577   39.9542   16.0388 H         1      C_B    0.0000
    155 H          27.5746   40.4266   18.5377 H         1      C_B    0.0000
    156 H          27.7698   42.1969   18.3992 H         1      C_B    0.0000
    157 H          26.1755   41.4490   18.0580 H         1      C_B    0.0000
    158 H          32.9289   40.9347    5.7111 H         1      C_B    0.0000
    159 H          31.6864   41.4835    6.9138 H         1      C_B    0.0000
    160 H          31.8325   45.1449    6.2161 H         1      C_B    0.0000
    161 H          31.3392   43.9346    7.4559 H         1      C_B    0.0000
    162 H          33.7765   42.8101    4.0310 H         1      C_B    0.0000
    163 H          32.1066   43.3831    3.7117 H         1      C_B    0.0000
    164 H          33.3243   44.5261    4.3252 H         1      C_B    0.0000
    165 H          28.5201   46.4327    4.3508 H         1      C_B    0.0000
    166 H          29.9247   45.4281    3.6404 H         1      C_B    0.0000
    167 H          28.8034   47.3244    6.6460 H         1      C_B    0.0000
    168 H          27.8162   46.8923    8.0483 H         1      C_B    0.0000
    169 H          26.8515   44.5318    5.2424 H         1      C_B    0.0000
    170 H          27.1485   43.3446    6.5377 H         1      C_B    0.0000
    171 H          28.1683   38.6571    5.1220 H         1      C_B    0.0000
    172 H          28.2231   38.2712    6.8248 H         1      C_B    0.0000
    173 H          31.8765   38.6150    6.0568 H         1      C_B    0.0000
    174 H          31.6471   39.5762    7.5590 H         1      C_B    0.0000
    175 H          29.7589   41.4635    7.4397 H         1      C_B    0.0000
    176 H          28.2428   40.9612    6.6681 H         1      C_B    0.0000
    177 H          28.8921   40.0732    8.0918 H         1      C_B    0.0000
    178 H          29.0408   43.5180    8.0529 H         1      C_B    0.0000
    179 H          29.7098   45.1443    8.4920 H         1      C_B    0.0000
    180 H          28.0244   44.7014    8.8958 H         1      C_B    0.0000
    181 H          31.9760   36.3372    5.4806 H         1      C_B    0.0000
    182 H          32.0878   35.6119    7.1196 H         1      C_B    0.0000
    183 H          30.9969   34.8959    5.8854 H         1      C_B    0.0000
    184 H          28.7824   35.1329    7.0505 H         1      C_B    0.0000
    185 H          29.8619   35.4065    8.4644 H         1      C_B    0.0000
    186 H          28.5151   36.5305    8.1434 H         1      C_B    0.0000
    187 H          25.0449   45.8296    4.6461 H         1      C_B    0.0000
    188 H          23.7313   45.7183    5.8625 H         1      C_B    0.0000
    189 H          24.3371   47.3248    5.3291 H         1      C_B    0.0000
    190 H          24.1083   46.4629    8.2272 H         1      C_B    0.0000
    191 H          25.7239   46.9322    8.8202 H         1      C_B    0.0000
    192 H          24.8265   48.0308    7.7189 H         1      C_B    0.0000
    193 S          44.3419   69.9801   21.6364 S         2      C_C    0.0000
    194 S          44.7134   71.4011   20.1280 S         2      C_C    0.0000
    195 C          44.0182   68.2153   20.9365 C.3       2      C_C    0.0000
    196 C          43.3962   67.1584   21.9773 C.3       2      C_C    0.0000
    197 O          42.7600   65.8747   21.5330 O.3       2      C_C    0.0000
    198 C          43.1860   64.6461   22.0726 C.2       2      C_C    0.0000
    199 O          44.2656   64.5256   22.6217 O.2       2      C_C    0.0000
    200 C          42.1961   63.3370   21.9941 C.2       2      C_C    0.0000
    201 C          40.6843   63.6344   22.1507 C.3       2      C_C    0.0000
    202 C          42.5560   62.3219   20.8378 C.3       2      C_C    0.0000
    203 C          42.1534   62.3990   19.3350 C.2       2      C_C    0.0000
    204 C          45.9506   72.7327   20.7233 C.3       2      C_C    0.0000
    205 C          46.0884   74.0749   19.8787 C.3       2      C_C    0.0000
    206 O          47.1801   74.9171   20.2935 O.3       2      C_C    0.0000
    207 C          47.4671   76.1466   19.6906 C.2       2      C_C    0.0000
    208 C          48.7259   76.9113   20.2614 C.3       2      C_C    0.0000
    209 O          46.8199   76.6388   18.7939 O.2       2      C_C    0.0000
    210 C          49.5118   77.6665   19.1360 C.3       2      C_C    0.0000
    211 C          49.6708   75.9012   20.9414 C.3       2      C_C    0.0000
    212 C          48.2213   77.9521   21.2957 C.3       2      C_C    0.0000
    213 O          49.2486   78.7914   21.7869 O.3       2      C_C    0.0000
    214 O          50.8535   77.9208   19.5066 O.3       2      C_C    0.0000
    215 C          48.9149   79.6900   22.7721 C.2       2      C_C    0.0000
    216 C          50.0791   80.6109   23.2106 C.3       2      C_C    0.0000
    217 O          47.8131   79.7738   23.2692 O.2       2      C_C    0.0000
    218 C          49.4894   82.0035   23.5598 C.3       2      C_C    0.0000
    219 C          50.7363   79.9615   24.4492 C.3       2      C_C    0.0000
    220 C          51.1070   80.7648   22.0742 C.3       2      C_C    0.0000
    221 O          51.7730   80.7684   24.9417 O.3       2      C_C    0.0000
    222 O          50.5143   82.9372   23.8059 O.3       2      C_C    0.0000
    223 C          52.5389   80.3029   25.9715 C.2       2      C_C    0.0000
    224 C          53.5868   81.3287   26.4246 C.3       2      C_C    0.0000
    225 O          52.3856   79.2132   26.4824 O.2       2      C_C    0.0000
    226 C          54.1554   82.2222   25.3067 C.3       2      C_C    0.0000
    227 O          55.3413   81.6570   24.8156 O.3       2      C_C    0.0000
    228 C          56.3888   81.6617   25.7565 C.3       2      C_C    0.0000
    229 O          55.8989   81.4181   27.0532 O.3       2      C_C    0.0000
    230 C          54.7723   80.5821   27.0618 C.3       2      C_C    0.0000
    231 C          52.8922   82.2083   27.4836 C.3       2      C_C    0.0000
    232 C          57.3899   80.5769   25.3637 C.3       2      C_C    0.0000
    233 C          57.1103   83.0079   25.7617 C.3       2      C_C    0.0000
    234 C          50.5361   83.9144   24.7631 C.2       2      C_C    0.0000
    235 C          49.2217   84.3855   25.4356 C.3       2      C_C    0.0000
    236 O          51.5979   84.4396   25.0282 O.2       2      C_C    0.0000
    237 C          49.5006   85.6836   26.2360 C.3       2      C_C    0.0000
    238 O          50.0547   85.3404   27.4801 O.3       2      C_C    0.0000
    239 C          49.1153   84.7413   28.3367 C.3       2      C_C    0.0000
    240 O          48.1697   84.0139   27.5924 O.3       2      C_C    0.0000
    241 C          48.7094   83.3651   26.4677 C.3       2      C_C    0.0000
    242 C          48.1599   84.7667   24.3838 C.3       2      C_C    0.0000
    243 C          49.8509   83.8279   29.3139 C.3       2      C_C    0.0000
    244 C          48.3746   85.8092   29.1404 C.3       2      C_C    0.0000
    245 C          51.7006   78.5886   18.6581 C.2       2      C_C    0.0000
    246 C          53.1904   78.5240   19.0952 C.3       2      C_C    0.0000
    247 O          51.3427   79.1484   17.6442 O.2       2      C_C    0.0000
    248 C          53.3759   77.6753   20.3716 C.3       2      C_C    0.0000
    249 C          53.6979   79.9779   19.2895 C.3       2      C_C    0.0000
    250 C          53.9634   77.8702   17.9264 C.3       2      C_C    0.0000
    251 O          55.0207   79.9923   19.7737 O.3       2      C_C    0.0000
    252 O          54.7301   77.3645   20.6014 O.3       2      C_C    0.0000
    253 C          55.7702   81.1218   19.5463 C.2       2      C_C    0.0000
    254 C          56.7296   81.0774   18.5986 C.2       2      C_C    0.0000
    255 C          55.7619   82.3031   20.5294 C.3       2      C_C    0.0000
    256 C          55.2902   76.9760   21.7879 C.2       2      C_C    0.0000
    257 C          54.5406   77.2469   23.1153 C.3       2      C_C    0.0000
    258 O          56.4026   76.4940   21.7785 O.2       2      C_C    0.0000
    259 C          56.0039   83.6675   19.8537 C.3       2      C_C    0.0000
    260 O          57.3588   84.0289   19.9478 O.3       2      C_C    0.0000
    261 C          57.7961   84.2289   21.2712 C.3       2      C_C    0.0000
    262 O          57.2094   83.3012   22.1506 O.3       2      C_C    0.0000
    263 C          56.9038   82.0788   21.5340 C.3       2      C_C    0.0000
    264 C          55.3348   76.7024   24.3335 C.3       2      C_C    0.0000
    265 O          54.9400   75.3826   24.6000 O.3       2      C_C    0.0000
    266 C          53.6316   75.3090   25.1112 C.3       2      C_C    0.0000
    267 O          52.8189   76.2848   24.5090 O.3       2      C_C    0.0000
    268 C          53.1661   76.5589   23.1785 C.3       2      C_C    0.0000
    269 C          54.4891   78.7740   23.3289 C.3       2      C_C    0.0000
    270 C          54.4343   82.4098   21.3081 C.3       2      C_C    0.0000
    271 C          53.0792   73.9134   24.8278 C.3       2      C_C    0.0000
    272 C          53.6181   75.5514   26.6193 C.3       2      C_C    0.0000
    273 C          59.3160   84.0735   21.2961 C.3       2      C_C    0.0000
    274 C          57.4476   85.6364   21.7520 C.3       2      C_C    0.0000
    275 H          45.0077   67.8140   20.6247 H         2      C_C    0.0000
    276 H          43.3850   68.2924   20.0264 H         2      C_C    0.0000
    277 H          42.5436   67.7046   22.4474 H         2      C_C    0.0000
    278 H          44.1534   66.9841   22.7779 H         2      C_C    0.0000
    279 H          40.0487   62.7117   22.0337 H         2      C_C    0.0000
    280 H          40.3157   64.3903   21.4411 H         2      C_C    0.0000
    281 H          40.4641   63.9907   23.1885 H         2      C_C    0.0000
    282 H          42.0661   61.3277   21.0780 H         2      C_C    0.0000
    283 H          43.6382   62.0528   20.8539 H         2      C_C    0.0000
    284 H          41.4950   63.2741   19.2157 H         2      C_C    0.0000
    285 H          41.5286   61.5021   19.0576 H         2      C_C    0.0000
    286 H          46.9688   72.2775   20.7411 H         2      C_C    0.0000
    287 H          45.7077   73.0502   21.7660 H         2      C_C    0.0000
    288 H          45.1529   74.6764   19.9580 H         2      C_C    0.0000
    289 H          46.2497   73.8333   18.8035 H         2      C_C    0.0000
    290 H          49.5409   77.0384   18.2162 H         2      C_C    0.0000
    291 H          49.0163   78.6328   18.8864 H         2      C_C    0.0000
    292 H          50.0681   75.1761   20.1951 H         2      C_C    0.0000
    293 H          49.1665   75.3355   21.7543 H         2      C_C    0.0000
    294 H          50.5393   76.4027   21.4210 H         2      C_C    0.0000
    295 H          47.7549   77.4111   22.1497 H         2      C_C    0.0000
    296 H          47.4515   78.6046   20.8195 H         2      C_C    0.0000
    297 H          48.8983   82.3670   22.6896 H         2      C_C    0.0000
    298 H          48.8420   81.9016   24.4471 H         2      C_C    0.0000
    299 H          51.1504   78.9659   24.1670 H         2      C_C    0.0000
    300 H          49.9804   79.8257   25.2578 H         2      C_C    0.0000
    301 H          50.6426   81.1761   21.1501 H         2      C_C    0.0000
    302 H          51.5791   79.7921   21.8242 H         2      C_C    0.0000
    303 H          51.9341   81.4496   22.3600 H         2      C_C    0.0000
    304 H          53.4651   82.3490   24.4468 H         2      C_C    0.0000
    305 H          54.3688   83.2514   25.6662 H         2      C_C    0.0000
    306 H          55.0186   79.6378   26.5286 H         2      C_C    0.0000
    307 H          54.5578   80.3102   28.1201 H         2      C_C    0.0000
    308 H          52.4554   81.5947   28.3038 H         2      C_C    0.0000
    309 H          52.0668   82.8001   27.0306 H         2      C_C    0.0000
    310 H          53.6023   82.9268   27.9520 H         2      C_C    0.0000
    311 H          56.9284   79.5657   25.3200 H         2      C_C    0.0000
    312 H          58.2322   80.5211   26.0903 H         2      C_C    0.0000
    313 H          57.8268   80.7787   24.3595 H         2      C_C    0.0000
    314 H          57.9821   82.9889   26.4550 H         2      C_C    0.0000
    315 H          56.4589   83.8454   26.0954 H         2      C_C    0.0000
    316 H          57.4952   83.2686   24.7510 H         2      C_C    0.0000
    317 H          50.1976   86.3717   25.7095 H         2      C_C    0.0000
    318 H          48.5859   86.2910   26.4070 H         2      C_C    0.0000
    319 H          49.5089   82.6647   26.7923 H         2      C_C    0.0000
    320 H          47.8756   82.7560   26.0534 H         2      C_C    0.0000
    321 H          48.5701   85.5020   23.6549 H         2      C_C    0.0000
    322 H          47.2632   85.2238   24.8597 H         2      C_C    0.0000
    323 H          47.7684   83.9043   23.8090 H         2      C_C    0.0000
    324 H          50.4251   83.0270   28.8011 H         2      C_C    0.0000
    325 H          49.1422   83.3264   30.0114 H         2      C_C    0.0000
    326 H          50.5805   84.4044   29.9274 H         2      C_C    0.0000
    327 H          47.6605   85.3445   29.8579 H         2      C_C    0.0000
    328 H          47.7803   86.4947   28.4963 H         2      C_C    0.0000
    329 H          49.0828   86.4368   29.7283 H         2      C_C    0.0000
    330 H          52.8512   76.6985   20.2793 H         2      C_C    0.0000
    331 H          52.9452   78.2617   21.1951 H         2      C_C    0.0000
    332 H          53.6634   80.5326   18.3243 H         2      C_C    0.0000
    333 H          53.0382   80.5017   20.0135 H         2      C_C    0.0000
    334 H          53.5929   76.8382   17.7320 H         2      C_C    0.0000
    335 H          55.0546   77.7978   18.1335 H         2      C_C    0.0000
    336 H          53.8660   78.4497   16.9811 H         2      C_C    0.0000
    337 H          57.4363   81.8986   18.4214 H         2      C_C    0.0000
    338 H          56.8419   80.1900   17.9584 H         2      C_C    0.0000
    339 H          55.7153   83.6460   18.7793 H         2      C_C    0.0000
    340 H          55.3989   84.4832   20.3045 H         2      C_C    0.0000
    341 H          57.8259   81.6713   21.0651 H         2      C_C    0.0000
    342 H          56.6024   81.3529   22.3210 H         2      C_C    0.0000
    343 H          56.4363   76.7191   24.1966 H         2      C_C    0.0000
    344 H          55.1741   77.3088   25.2504 H         2      C_C    0.0000
    345 H          53.1455   75.6144   22.5915 H         2      C_C    0.0000
    346 H          52.3485   77.2117   22.8066 H         2      C_C    0.0000
    347 H          53.9461   79.3383   22.5484 H         2      C_C    0.0000
    348 H          55.5156   79.2017   23.3633 H         2      C_C    0.0000
    349 H          53.9797   79.0228   24.2830 H         2      C_C    0.0000
    350 H          54.2167   81.4800   21.8755 H         2      C_C    0.0000
    351 H          53.5838   82.6282   20.6239 H         2      C_C    0.0000
    352 H          54.4590   83.2262   22.0648 H         2      C_C    0.0000
    353 H          53.2683   73.5889   23.7800 H         2      C_C    0.0000
    354 H          51.9789   73.8705   24.9979 H         2      C_C    0.0000
    355 H          53.5495   73.1528   25.4919 H         2      C_C    0.0000
    356 H          54.3319   74.8769   27.1451 H         2      C_C    0.0000
    357 H          52.6035   75.3678   27.0406 H         2      C_C    0.0000
    358 H          53.8873   76.5965   26.8907 H         2      C_C    0.0000
    359 H          59.6443   83.0773   20.9240 H         2      C_C    0.0000
    360 H          59.7188   84.1912   22.3281 H         2      C_C    0.0000
    361 H          59.8077   84.8389   20.6534 H         2      C_C    0.0000
    362 H          57.8694   85.8272   22.7654 H         2      C_C    0.0000
    363 H          56.3506   85.8033   21.8300 H         2      C_C    0.0000
    364 H          57.8572   86.4122   21.0654 H         2      C_C    0.0000
    365 S          64.7876   56.1634    5.3579 S         3      C_D    0.0000
    366 S          66.7415   56.6657    4.7559 S         3      C_D    0.0000
    367 C          64.2152   54.4523    4.6843 C.3       3      C_D    0.0000
    368 C          62.6403   54.1491    4.8061 C.3       3      C_D    0.0000
    369 O          61.9728   53.0508    4.0326 O.3       3      C_D    0.0000
    370 C          61.1979   52.0821    4.6983 C.2       3      C_D    0.0000
    371 O          61.3121   51.8782    5.8929 O.2       3      C_D    0.0000
    372 C          60.0820   51.2164    3.8586 C.2       3      C_D    0.0000
    373 C          59.3456   51.9893    2.7366 C.3       3      C_D    0.0000
    374 C          60.5562   49.7624    3.4612 C.3       3      C_D    0.0000
    375 C          61.4294   49.3385    2.2429 C.2       3      C_D    0.0000
    376 C          67.6378   57.6868    6.1020 C.3       3      C_D    0.0000
    377 C          68.9716   58.4609    5.7075 C.3       3      C_D    0.0000
    378 O          69.6711   59.0299    6.8301 O.3       3      C_D    0.0000
    379 C          70.8573   59.7602    6.6996 C.2       3      C_D    0.0000
    380 C          71.4955   60.2756    8.0495 C.3       3      C_D    0.0000
    381 O          71.3942   60.0143    5.6449 O.2       3      C_D    0.0000
    382 C          73.0612   60.2348    8.0096 C.3       3      C_D    0.0000
    383 C          71.0007   59.3972    9.2153 C.3       3      C_D    0.0000
    384 C          71.0444   61.7456    8.2579 C.3       3      C_D    0.0000
    385 O          71.6563   62.3623    9.3743 O.3       3      C_D    0.0000
    386 O          73.6232   60.2034    9.3078 O.3       3      C_D    0.0000
    387 C          71.2555   63.6383    9.6911 C.2       3      C_D    0.0000
    388 C          72.0156   64.2630   10.8859 C.3       3      C_D    0.0000
    389 O          70.3862   64.2424    9.1016 O.2       3      C_D    0.0000
    390 C          72.1730   65.7836   10.6175 C.3       3      C_D    0.0000
    391 C          71.1675   64.0093   12.1526 C.3       3      C_D    0.0000
    392 C          73.4098   63.6263   11.0350 C.3       3      C_D    0.0000
    393 O          71.7671   64.5957   13.2773 O.3       3      C_D    0.0000
    394 O          73.0012   66.3830   11.5859 O.3       3      C_D    0.0000
    395 C          71.2125   64.3833   14.5066 C.2       3      C_D    0.0000
    396 C          71.9556   65.1393   15.6165 C.3       3      C_D    0.0000
    397 O          70.2294   63.6962   14.6895 O.2       3      C_D    0.0000
    398 C          73.4741   65.2861   15.4061 C.3       3      C_D    0.0000
    399 O          74.1394   64.2436   16.0676 O.3       3      C_D    0.0000
    400 C          74.0288   64.3167   17.4694 C.3       3      C_D    0.0000
    401 O          72.7550   64.7801   17.8482 O.3       3      C_D    0.0000
    402 C          71.7472   64.3991   16.9496 C.3       3      C_D    0.0000
    403 C          71.3082   66.5371   15.6873 C.3       3      C_D    0.0000
    404 C          74.2686   62.9209   18.0419 C.3       3      C_D    0.0000
    405 C          75.0760   65.2649   18.0499 C.3       3      C_D    0.0000
    406 C          72.8424   67.6090   12.1716 C.2       3      C_D    0.0000
    407 C          71.9376   68.6825   11.5149 C.3       3      C_D    0.0000
    408 O          73.4702   67.8524   13.1815 O.2       3      C_D    0.0000
    409 C          72.1817   70.0450   12.2133 C.3       3      C_D    0.0000
    410 O          71.4314   70.0886   13.3997 O.3       3      C_D    0.0000
    411 C          70.0518   70.2008   13.1560 C.3       3      C_D    0.0000
    412 O          69.7138   69.5534   11.9544 O.3       3      C_D    0.0000
    413 C          70.4436   68.3746   11.7196 C.3       3      C_D    0.0000
    414 C          72.3125   68.9018   10.0350 C.3       3      C_D    0.0000
    415 C          69.2921   69.5894   14.3304 C.3       3      C_D    0.0000
    416 C          69.6527   71.6710   13.0375 C.3       3      C_D    0.0000
    417 C          74.9843   60.1815    9.4821 C.2       3      C_D    0.0000
    418 C          75.4155   59.8575   10.9394 C.3       3      C_D    0.0000
    419 O          75.7854   60.3596    8.5899 O.2       3      C_D    0.0000
    420 C          74.1980   59.5882   11.8499 C.3       3      C_D    0.0000
    421 C          76.2759   61.0397   11.4602 C.3       3      C_D    0.0000
    422 C          76.2933   58.5866   10.8658 C.3       3      C_D    0.0000
    423 O          76.6284   60.8530   12.8113 O.3       3      C_D    0.0000
    424 O          74.5787   59.0080   13.0753 O.3       3      C_D    0.0000
    425 C          77.7419   61.5112   13.2761 C.2       3      C_D    0.0000
    426 C          78.8701   60.8006   13.4828 C.2       3      C_D    0.0000
    427 C          77.6526   62.9332   13.8527 C.3       3      C_D    0.0000
    428 C          73.8486   58.9873   14.2324 C.2       3      C_D    0.0000
    429 C          72.6796   59.9851   14.4198 C.3       3      C_D    0.0000
    430 O          74.1842   58.2345   15.1214 O.2       3      C_D    0.0000
    431 C          78.9342   63.7638   13.6424 C.3       3      C_D    0.0000
    432 O          79.7487   63.7085   14.7863 O.3       3      C_D    0.0000
    433 C          79.1575   64.2883   15.9253 C.3       3      C_D    0.0000
    434 O          77.7778   64.0205   15.9791 O.3       3      C_D    0.0000
    435 C          77.4308   62.8061   15.3687 C.3       3      C_D    0.0000
    436 C          71.9691   59.7725   15.7842 C.3       3      C_D    0.0000
    437 O          70.9151   58.8598   15.6280 O.3       3      C_D    0.0000
    438 C          69.8502   59.3956   14.8812 C.3       3      C_D    0.0000
    439 O          70.3419   60.2365   13.8680 O.3       3      C_D    0.0000
    440 C          71.5811   59.8283   13.3544 C.3       3      C_D    0.0000
    441 C          73.2759   61.4056   14.5029 C.3       3      C_D    0.0000
    442 C          76.4835   63.7391   13.2494 C.3       3      C_D    0.0000
    443 C          69.0579   58.2410   14.2711 C.3       3      C_D    0.0000
    444 C          68.9204   60.2219   15.7677 C.3       3      C_D    0.0000
    445 C          79.8440   63.7093   17.1616 C.3       3      C_D    0.0000
    446 C          79.3555   65.8031   15.9291 C.3       3      C_D    0.0000
    447 H          64.7380   53.6830    5.2944 H         3      C_D    0.0000
    448 H          64.5590   54.3384    3.6336 H         3      C_D    0.0000
    449 H          62.1514   55.0669    4.3999 H         3      C_D    0.0000
    450 H          62.3871   54.0975    5.8914 H         3      C_D    0.0000
    451 H          58.6338   51.3354    2.1579 H         3      C_D    0.0000
    452 H          60.0292   52.4636    2.0167 H         3      C_D    0.0000
    453 H          58.6928   52.7846    3.1769 H         3      C_D    0.0000
    454 H          59.6357   49.1484    3.2123 H         3      C_D    0.0000
    455 H          60.9661   49.2128    4.3408 H         3      C_D    0.0000
    456 H          61.6150   50.2426    1.6413 H         3      C_D    0.0000
    457 H          60.8474   48.6385    1.5773 H         3      C_D    0.0000
    458 H          67.9197   56.9964    6.9315 H         3      C_D    0.0000
    459 H          66.9505   58.4575    6.5270 H         3      C_D    0.0000
    460 H          68.7388   59.2924    5.0020 H         3      C_D    0.0000
    461 H          69.6779   57.7670    5.1974 H         3      C_D    0.0000
    462 H          73.3966   59.3101    7.4865 H         3      C_D    0.0000
    463 H          73.4669   61.1158    7.4611 H         3      C_D    0.0000
    464 H          71.3564   58.3491    9.0915 H         3      C_D    0.0000
    465 H          69.8922   59.3903    9.2950 H         3      C_D    0.0000
    466 H          71.3684   59.7652   10.1978 H         3      C_D    0.0000
    467 H          69.9394   61.7652    8.3925 H         3      C_D    0.0000
    468 H          71.3077   62.3456    7.3548 H         3      C_D    0.0000
    469 H          72.6553   65.9206    9.6239 H         3      C_D    0.0000
    470 H          71.1734   66.2502   10.6258 H         3      C_D    0.0000
    471 H          71.0736   62.9112   12.3190 H         3      C_D    0.0000
    472 H          70.1496   64.4470   12.0268 H         3      C_D    0.0000
    473 H          74.0189   63.7447   10.1110 H         3      C_D    0.0000
    474 H          73.3350   62.5438   11.2672 H         3      C_D    0.0000
    475 H          73.9831   64.0861   11.8685 H         3      C_D    0.0000
    476 H          73.7787   65.2526   14.3394 H         3      C_D    0.0000
    477 H          73.8543   66.2568   15.7899 H         3      C_D    0.0000
    478 H          71.7668   63.2934   16.8318 H         3      C_D    0.0000
    479 H          70.7661   64.6588   17.4078 H         3      C_D    0.0000
    480 H          70.2052   66.4715   15.8257 H         3      C_D    0.0000
    481 H          71.4961   67.1108   14.7533 H         3      C_D    0.0000
    482 H          71.7117   67.1352   16.5354 H         3      C_D    0.0000
    483 H          73.5510   62.1684   17.6468 H         3      C_D    0.0000
    484 H          74.1704   62.9160   19.1513 H         3      C_D    0.0000
    485 H          75.2913   62.5562   17.7947 H         3      C_D    0.0000
    486 H          75.0346   65.2694   19.1630 H         3      C_D    0.0000
    487 H          74.9323   66.3184   17.7236 H         3      C_D    0.0000
    488 H          76.1062   64.9639   17.7569 H         3      C_D    0.0000
    489 H          73.2526   70.2164   12.4586 H         3      C_D    0.0000
    490 H          71.8990   70.9127   11.5791 H         3      C_D    0.0000
    491 H          70.2765   67.6626   12.5565 H         3      C_D    0.0000
    492 H          69.9941   67.9299   10.8041 H         3      C_D    0.0000
    493 H          73.4000   69.1175    9.9293 H         3      C_D    0.0000
    494 H          71.7520   69.7582    9.5971 H         3      C_D    0.0000
    495 H          72.0741   68.0409    9.3797 H         3      C_D    0.0000
    496 H          69.5387   68.5177   14.4879 H         3      C_D    0.0000
    497 H          68.1908   69.6522   14.1772 H         3      C_D    0.0000
    498 H          69.5334   70.1181   15.2808 H         3      C_D    0.0000
    499 H          68.5533   71.7753   12.8917 H         3      C_D    0.0000
    500 H          70.1393   72.1788   12.1753 H         3      C_D    0.0000
    501 H          69.9265   72.2398   13.9554 H         3      C_D    0.0000
    502 H          73.4988   58.8645   11.3751 H         3      C_D    0.0000
    503 H          73.7016   60.5581   11.9930 H         3      C_D    0.0000
    504 H          77.2072   61.1364   10.8569 H         3      C_D    0.0000
    505 H          75.6991   61.9836   11.3603 H         3      C_D    0.0000
    506 H          75.7164   57.7276   10.4542 H         3      C_D    0.0000
    507 H          76.6749   58.2817   11.8660 H         3      C_D    0.0000
    508 H          77.1909   58.7318   10.2237 H         3      C_D    0.0000
    509 H          79.7711   61.2259   13.9437 H         3      C_D    0.0000
    510 H          78.9236   59.7407   13.1935 H         3      C_D    0.0000
    511 H          79.5194   63.3949   12.7709 H         3      C_D    0.0000
    512 H          78.7221   64.8324   13.4232 H         3      C_D    0.0000
    513 H          78.0246   61.9878   15.8311 H         3      C_D    0.0000
    514 H          76.3638   62.5896   15.5963 H         3      C_D    0.0000
    515 H          72.6394   59.4017   16.5877 H         3      C_D    0.0000
    516 H          71.5571   60.7168   16.1998 H         3      C_D    0.0000
    517 H          71.5005   58.7805   12.9900 H         3      C_D    0.0000
    518 H          71.7476   60.4853   12.4748 H         3      C_D    0.0000
    519 H          73.8222   61.7380   13.6010 H         3      C_D    0.0000
    520 H          73.9962   61.4815   15.3474 H         3      C_D    0.0000
    521 H          72.4781   62.1607   14.6613 H         3      C_D    0.0000
    522 H          75.5090   63.2322   13.4139 H         3      C_D    0.0000
    523 H          76.6302   63.9040   12.1583 H         3      C_D    0.0000
    524 H          76.3840   64.7440   13.7183 H         3      C_D    0.0000
    525 H          69.7176   57.4784   13.7998 H         3      C_D    0.0000
    526 H          68.3521   58.6024   13.4884 H         3      C_D    0.0000
    527 H          68.4557   57.7136   15.0457 H         3      C_D    0.0000
    528 H          68.5829   59.6398   16.6554 H         3      C_D    0.0000
    529 H          68.0136   60.5384   15.2037 H         3      C_D    0.0000
    530 H          69.3984   61.1539   16.1438 H         3      C_D    0.0000
    531 H          79.7680   62.5999   17.2056 H         3      C_D    0.0000
    532 H          79.3955   64.1099   18.0994 H         3      C_D    0.0000
    533 H          80.9289   63.9617   17.1726 H         3      C_D    0.0000
    534 H          78.9664   66.2534   16.8709 H         3      C_D    0.0000
    535 H          78.8211   66.3071   15.0938 H         3      C_D    0.0000
    536 H          80.4337   66.0711   15.8480 H         3      C_D    0.0000
    537 S          86.2180   38.5482   40.7908 S         4      C_E    0.0000
    538 S          87.4484   39.8698   39.7081 S         4      C_E    0.0000
    539 C          86.7606   36.7087   40.6143 C.3       4      C_E    0.0000
    540 C          86.0994   35.6855   41.6644 C.3       4      C_E    0.0000
    541 O          86.6560   34.3138   41.9068 O.3       4      C_E    0.0000
    542 C          85.8269   33.1811   41.7999 C.2       4      C_E    0.0000
    543 O          84.7726   33.2117   41.1922 O.2       4      C_E    0.0000
    544 C          86.2660   31.7798   42.5371 C.2       4      C_E    0.0000
    545 C          86.9866   31.9405   43.8986 C.3       4      C_E    0.0000
    546 C          86.9120   30.7129   41.5668 C.3       4      C_E    0.0000
    547 C          88.3909   30.6266   41.0854 C.2       4      C_E    0.0000
    548 C          86.4479   41.3598   39.0471 C.3       4      C_E    0.0000
    549 C          87.2412   42.6351   38.5198 C.3       4      C_E    0.0000
    550 O          86.4099   43.6108   37.8641 O.3       4      C_E    0.0000
    551 C          86.9077   44.8086   37.3397 C.2       4      C_E    0.0000
    552 C          85.8468   45.7365   36.6266 C.3       4      C_E    0.0000
    553 O          88.0639   45.1602   37.4094 O.2       4      C_E    0.0000
    554 C          86.4534   46.4695   35.3819 C.3       4      C_E    0.0000
    555 C          84.6477   44.8825   36.1702 C.3       4      C_E    0.0000
    556 C          85.3837   46.8048   37.6522 C.3       4      C_E    0.0000
    557 O          84.5230   47.7776   37.0919 O.3       4      C_E    0.0000
    558 O          85.4525   46.8828   34.4710 O.3       4      C_E    0.0000
    559 C          83.9913   48.7174   37.9424 C.2       4      C_E    0.0000
    560 C          83.1108   49.7801   37.2418 C.3       4      C_E    0.0000
    561 O          84.1810   48.7341   39.1391 O.2       4      C_E    0.0000
    562 C          83.3074   51.1327   37.9773 C.3       4      C_E    0.0000
    563 C          81.6450   49.3018   37.3449 C.3       4      C_E    0.0000
    564 C          83.5227   49.9394   35.7666 C.3       4      C_E    0.0000
    565 O          80.7743   50.2436   36.7762 O.3       4      C_E    0.0000
    566 O          82.6638   52.1788   37.2887 O.3       4      C_E    0.0000
    567 C          79.4464   49.9411   36.6809 C.2       4      C_E    0.0000
    568 C          78.6291   51.0977   36.0894 C.3       4      C_E    0.0000
    569 O          78.9703   48.8873   37.0483 O.2       4      C_E    0.0000
    570 C          79.3635   51.9474   35.0358 C.3       4      C_E    0.0000
    571 O          79.0648   51.4618   33.7544 O.3       4      C_E    0.0000
    572 C          77.7166   51.6459   33.3922 C.3       4      C_E    0.0000
    573 O          76.8701   51.4632   34.5017 O.3       4      C_E    0.0000
    574 C          77.3681   50.5250   35.4182 C.3       4      C_E    0.0000
    575 C          78.2281   51.9897   37.2817 C.3       4      C_E    0.0000
    576 C          77.3721   50.6350   32.3000 C.3       4      C_E    0.0000
    577 C          77.4875   53.0517   32.8409 C.3       4      C_E    0.0000
    578 C          81.9734   53.2288   37.8293 C.2       4      C_E    0.0000
    579 C          82.1787   53.6235   39.3140 C.3       4      C_E    0.0000
    580 O          81.2443   53.8749   37.1051 O.2       4      C_E    0.0000
    581 C          81.5196   55.0040   39.5657 C.3       4      C_E    0.0000
    582 O          80.1422   54.8198   39.7692 O.3       4      C_E    0.0000
    583 C          79.8615   54.2045   41.0012 C.3       4      C_E    0.0000
    584 O          80.9027   53.3299   41.3590 O.3       4      C_E    0.0000
    585 C          81.4701   52.6464   40.2690 C.3       4      C_E    0.0000
    586 C          83.6740   53.8117   39.6418 C.3       4      C_E    0.0000
    587 C          78.5391   53.4506   40.8861 C.3       4      C_E    0.0000
    588 C          79.7210   55.2577   42.0994 C.3       4      C_E    0.0000
    589 C          85.7846   47.5579   33.3232 C.2       4      C_E    0.0000
    590 C          84.6096   47.6747   32.3131 C.3       4      C_E    0.0000
    591 O          86.8909   47.9949   33.0892 O.2       4      C_E    0.0000
    592 C          83.3422   46.9560   32.8241 C.3       4      C_E    0.0000
    593 C          84.3515   49.1822   32.0483 C.3       4      C_E    0.0000
    594 C          85.0874   47.0054   31.0037 C.3       4      C_E    0.0000
    595 O          83.2367   49.3650   31.2065 O.3       4      C_E    0.0000
    596 O          82.3830   46.7984   31.8051 O.3       4      C_E    0.0000
    597 C          83.1602   50.5395   30.4967 C.2       4      C_E    0.0000
    598 C          83.4276   50.5110   29.1745 C.2       4      C_E    0.0000
    599 C          82.4893   51.7913   31.0843 C.3       4      C_E    0.0000
    600 C          81.0448   46.5651   31.9705 C.2       4      C_E    0.0000
    601 C          80.3755   46.8700   33.3330 C.3       4      C_E    0.0000
    602 O          80.3944   46.1945   31.0169 O.2       4      C_E    0.0000
    603 C          83.0885   53.1125   30.5628 C.3       4      C_E    0.0000
    604 O          82.3240   53.6106   29.4939 O.3       4      C_E    0.0000
    605 C          81.0097   53.9603   29.8585 C.3       4      C_E    0.0000
    606 O          80.4797   53.0554   30.7956 O.3       4      C_E    0.0000
    607 C          81.0092   51.7625   30.6694 C.3       4      C_E    0.0000
    608 C          78.8657   46.5073   33.3140 C.3       4      C_E    0.0000
    609 O          78.6954   45.1818   33.7414 O.3       4      C_E    0.0000
    610 C          78.9654   45.0235   35.1127 C.3       4      C_E    0.0000
    611 O          80.0243   45.8628   35.4997 O.3       4      C_E    0.0000
    612 C          80.9796   46.0590   34.4922 C.3       4      C_E    0.0000
    613 C          80.4115   48.3972   33.5490 C.3       4      C_E    0.0000
    614 C          82.5688   51.8319   32.6245 C.3       4      C_E    0.0000
    615 C          79.3291   43.5622   35.3687 C.3       4      C_E    0.0000
    616 C          77.7453   45.3865   35.9570 C.3       4      C_E    0.0000
    617 C          80.1508   53.9561   28.5946 C.3       4      C_E    0.0000
    618 C          80.9684   55.3620   30.4645 C.3       4      C_E    0.0000
    619 H          86.4383   36.3814   39.6012 H         4      C_E    0.0000
    620 H          87.8698   36.6487   40.6497 H         4      C_E    0.0000
    621 H          86.2337   36.1829   42.6548 H         4      C_E    0.0000
    622 H          85.0028   35.6521   41.4619 H         4      C_E    0.0000
    623 H          87.3140   30.9539   44.3325 H         4      C_E    0.0000
    624 H          87.8688   32.5960   43.8471 H         4      C_E    0.0000
    625 H          86.2837   32.3578   44.6630 H         4      C_E    0.0000
    626 H          86.8546   29.6989   42.0714 H         4      C_E    0.0000
    627 H          86.2826   30.5527   40.6602 H         4      C_E    0.0000
    628 H          88.9519   31.4208   41.6034 H         4      C_E    0.0000
    629 H          88.8495   29.6535   41.4236 H         4      C_E    0.0000
    630 H          85.8288   41.0089   38.1882 H         4      C_E    0.0000
    631 H          85.7485   41.7369   39.8319 H         4      C_E    0.0000
    632 H          87.7527   43.1471   39.3681 H         4      C_E    0.0000
    633 H          88.0210   42.3227   37.7884 H         4      C_E    0.0000
    634 H          87.1278   45.7738   34.8318 H         4      C_E    0.0000
    635 H          87.0464   47.3592   35.6956 H         4      C_E    0.0000
    636 H          84.9672   44.1407   35.4034 H         4      C_E    0.0000
    637 H          84.1730   44.3392   37.0156 H         4      C_E    0.0000
    638 H          83.8410   45.5039   35.7241 H         4      C_E    0.0000
    639 H          84.8573   46.2930   38.4891 H         4      C_E    0.0000
    640 H          86.2750   47.3379   38.0601 H         4      C_E    0.0000
    641 H          84.3955   51.3642   38.0099 H         4      C_E    0.0000
    642 H          82.9043   51.0416   39.0002 H         4      C_E    0.0000
    643 H          81.5356   48.3314   36.8076 H         4      C_E    0.0000
    644 H          81.3619   49.1601   38.4141 H         4      C_E    0.0000
    645 H          84.5934   50.2262   35.6653 H         4      C_E    0.0000
    646 H          83.3580   49.0001   35.1992 H         4      C_E    0.0000
    647 H          82.9223   50.7226   35.2559 H         4      C_E    0.0000
    648 H          80.4676   51.9353   35.1482 H         4      C_E    0.0000
    649 H          79.0743   53.0186   35.0915 H         4      C_E    0.0000
    650 H          77.5645   49.5685   34.8860 H         4      C_E    0.0000
    651 H          76.5685   50.3215   36.1660 H         4      C_E    0.0000
    652 H          77.7050   51.4060   38.0727 H         4      C_E    0.0000
    653 H          79.1227   52.4590   37.7466 H         4      C_E    0.0000
    654 H          77.5426   52.8099   36.9699 H         4      C_E    0.0000
    655 H          77.5340   49.5836   32.6250 H         4      C_E    0.0000
    656 H          76.3058   50.7214   31.9902 H         4      C_E    0.0000
    657 H          77.9983   50.7952   31.3932 H         4      C_E    0.0000
    658 H          76.4376   53.1747   32.4896 H         4      C_E    0.0000
    659 H          77.6627   53.8464   33.5991 H         4      C_E    0.0000
    660 H          78.1543   53.2646   31.9762 H         4      C_E    0.0000
    661 H          81.6667   55.7110   38.7202 H         4      C_E    0.0000
    662 H          81.9441   55.5315   40.4469 H         4      C_E    0.0000
    663 H          80.6832   52.0562   39.7516 H         4      C_E    0.0000
    664 H          82.1905   51.9270   40.7179 H         4      C_E    0.0000
    665 H          84.1502   54.5211   38.9273 H         4      C_E    0.0000
    666 H          83.8164   54.2170   40.6689 H         4      C_E    0.0000
    667 H          84.2590   52.8710   39.6235 H         4      C_E    0.0000
    668 H          78.5595   52.6699   40.0960 H         4      C_E    0.0000
    669 H          78.2785   52.9415   41.8417 H         4      C_E    0.0000
    670 H          77.7049   54.1438   40.6320 H         4      C_E    0.0000
    671 H          79.4511   54.7863   43.0719 H         4      C_E    0.0000
    672 H          80.6617   55.8268   42.2699 H         4      C_E    0.0000
    673 H          78.9258   55.9974   41.8512 H         4      C_E    0.0000
    674 H          83.5828   45.9284   33.1767 H         4      C_E    0.0000
    675 H          82.9595   47.5634   33.6560 H         4      C_E    0.0000
    676 H          85.2422   49.6496   31.5701 H         4      C_E    0.0000
    677 H          84.1674   49.6971   33.0151 H         4      C_E    0.0000
    678 H          85.3233   45.9298   31.1695 H         4      C_E    0.0000
    679 H          84.3179   47.0569   30.2011 H         4      C_E    0.0000
    680 H          85.9985   47.4930   30.5900 H         4      C_E    0.0000
    681 H          83.2946   51.3797   28.5166 H         4      C_E    0.0000
    682 H          83.7925   49.5891   28.6980 H         4      C_E    0.0000
    683 H          84.1369   52.9748   30.2164 H         4      C_E    0.0000
    684 H          83.1383   53.8998   31.3454 H         4      C_E    0.0000
    685 H          80.8534   51.4095   29.6268 H         4      C_E    0.0000
    686 H          80.4272   51.0779   31.3249 H         4      C_E    0.0000
    687 H          78.3883   46.6199   32.3181 H         4      C_E    0.0000
    688 H          78.2621   47.1685   33.9718 H         4      C_E    0.0000
    689 H          81.3648   45.0720   34.1540 H         4      C_E    0.0000
    690 H          81.8099   46.5963   34.9972 H         4      C_E    0.0000
    691 H          81.4235   48.8399   33.5977 H         4      C_E    0.0000
    692 H          79.8818   48.9241   32.7246 H         4      C_E    0.0000
    693 H          79.9211   48.6728   34.5057 H         4      C_E    0.0000
    694 H          82.0998   50.9351   33.0824 H         4      C_E    0.0000
    695 H          83.6240   51.9094   32.9704 H         4      C_E    0.0000
    696 H          82.0244   52.7062   33.0473 H         4      C_E    0.0000
    697 H          80.0610   43.1726   34.6261 H         4      C_E    0.0000
    698 H          79.7751   43.4265   36.3807 H         4      C_E    0.0000
    699 H          78.4294   42.9081   35.3100 H         4      C_E    0.0000
    700 H          76.8402   44.8303   35.6222 H         4      C_E    0.0000
    701 H          77.9185   45.1404   37.0294 H         4      C_E    0.0000
    702 H          77.5015   46.4716   35.9185 H         4      C_E    0.0000
    703 H          80.1626   52.9695   28.0799 H         4      C_E    0.0000
    704 H          79.0879   54.1969   28.8258 H         4      C_E    0.0000
    705 H          80.5149   54.7104   27.8602 H         4      C_E    0.0000
    706 H          79.9197   55.6755   30.6724 H         4      C_E    0.0000
    707 H          81.5149   55.4272   31.4312 H         4      C_E    0.0000
    708 H          81.4145   56.1149   29.7752 H         4      C_E    0.0000
    709 S          33.7141   19.9578   37.2935 S         5      C_F    0.0000
    710 S          33.1670   20.6210   35.3716 S         5      C_F    0.0000
    711 C          34.9842   21.1233   38.1523 C.3       5      C_F    0.0000
    712 C          35.1914   20.8837   39.7292 C.3       5      C_F    0.0000
    713 O          35.8525   21.8982   40.6146 O.3       5      C_F    0.0000
    714 C          36.9417   21.5303   41.4271 C.2       5      C_F    0.0000
    715 O          37.5989   20.5299   41.2062 O.2       5      C_F    0.0000
    716 C          37.3296   22.4505   42.7320 C.2       5      C_F    0.0000
    717 C          36.1304   23.0778   43.4851 C.3       5      C_F    0.0000
    718 C          38.5487   23.4276   42.4956 C.3       5      C_F    0.0000
    719 C          38.5340   24.8342   41.8266 C.2       5      C_F    0.0000
    720 C          32.8153   19.1458   34.2062 C.3       5      C_F    0.0000
    721 C          32.0516   19.4231   32.8373 C.3       5      C_F    0.0000
    722 O          32.0145   18.2907   31.9488 O.3       5      C_F    0.0000
    723 C          31.3819   18.3200   30.7012 C.2       5      C_F    0.0000
    724 C          31.4771   16.9900   29.8544 C.3       5      C_F    0.0000
    725 O          30.7816   19.2733   30.2584 O.2       5      C_F    0.0000
    726 C          31.6171   17.2811   28.3214 C.3       5      C_F    0.0000
    727 C          32.6975   16.1735   30.3231 C.3       5      C_F    0.0000
    728 C          30.1721   16.1835   30.0873 C.3       5      C_F    0.0000
    729 O          30.0820   15.0257   29.2798 O.3       5      C_F    0.0000
    730 O          32.1894   16.1901   27.6254 O.3       5      C_F    0.0000
    731 C          29.0010   14.1997   29.4758 C.2       5      C_F    0.0000
    732 C          28.9449   12.9897   28.5123 C.3       5      C_F    0.0000
    733 O          28.1525   14.3819   30.3215 O.2       5      C_F    0.0000
    734 C          27.4551   12.6941   28.1928 C.3       5      C_F    0.0000
    735 C          29.6033   11.7946   29.2378 C.3       5      C_F    0.0000
    736 C          29.6928   13.3031   27.2032 C.3       5      C_F    0.0000
    737 O          29.5433   10.6385   28.4453 O.3       5      C_F    0.0000
    738 O          27.3401   11.7112   27.1910 O.3       5      C_F    0.0000
    739 C          30.1714    9.5071   28.8806 C.2       5      C_F    0.0000
    740 C          29.9606    8.3233   27.9266 C.3       5      C_F    0.0000
    741 O          30.7997    9.4448   29.9166 O.2       5      C_F    0.0000
    742 C          29.8588    8.6936   26.4353 C.3       5      C_F    0.0000
    743 O          31.1227    8.5773   25.8386 O.3       5      C_F    0.0000
    744 C          31.5882    7.2498   25.7804 C.3       5      C_F    0.0000
    745 O          31.2125    6.5358   26.9336 O.3       5      C_F    0.0000
    746 C          31.1401    7.3461   28.0765 C.3       5      C_F    0.0000
    747 C          28.6541    7.6398   28.3777 C.3       5      C_F    0.0000
    748 C          33.1106    7.2813   25.6582 C.3       5      C_F    0.0000
    749 C          31.0194    6.5258   24.5618 C.3       5      C_F    0.0000
    750 C          26.4270   10.6948   27.1247 C.2       5      C_F    0.0000
    751 C          25.1184   10.7584   27.9528 C.3       5      C_F    0.0000
    752 O          26.6403    9.7755   26.3612 O.2       5      C_F    0.0000
    753 C          24.1537    9.6497   27.4593 C.3       5      C_F    0.0000
    754 O          24.5150    8.4324   28.0595 O.3       5      C_F    0.0000
    755 C          24.2139    8.4030   29.4319 C.3       5      C_F    0.0000
    756 O          24.3199    9.6922   29.9831 O.3       5      C_F    0.0000
    757 C          25.3680   10.4570   29.4413 C.3       5      C_F    0.0000
    758 C          24.3738   12.0893   27.7220 C.3       5      C_F    0.0000
    759 C          25.1721    7.4388   30.1265 C.3       5      C_F    0.0000
    760 C          22.7864    7.9037   29.6504 C.3       5      C_F    0.0000
    761 C          32.3793   16.2468   26.2674 C.2       5      C_F    0.0000
    762 C          33.2722   15.0989   25.7199 C.3       5      C_F    0.0000
    763 O          31.9315   17.1199   25.5557 O.2       5      C_F    0.0000
    764 C          33.7795   14.1792   26.8515 C.3       5      C_F    0.0000
    765 C          32.4510   14.3139   24.6621 C.3       5      C_F    0.0000
    766 C          34.4783   15.7731   25.0258 C.3       5      C_F    0.0000
    767 O          33.1707   13.2002   24.1866 O.3       5      C_F    0.0000
    768 O          34.8146   13.3311   26.4126 O.3       5      C_F    0.0000
    769 C          32.8287   12.7002   22.9528 C.2       5      C_F    0.0000
    770 C          33.6468   12.9477   21.9088 C.2       5      C_F    0.0000
    771 C          31.7371   11.6299   22.7939 C.3       5      C_F    0.0000
    772 C          35.2252   12.1678   27.0044 C.2       5      C_F    0.0000
    773 C          34.2922   11.4463   28.0075 C.3       5      C_F    0.0000
    774 O          36.2858   11.6850   26.6699 O.2       5      C_F    0.0000
    775 C          30.9887   11.7095   21.4484 C.3       5      C_F    0.0000
    776 O          31.5424   10.8072   20.5241 O.3       5      C_F    0.0000
    777 C          31.4045    9.4584   20.9042 C.3       5      C_F    0.0000
    778 O          31.5676    9.2977   22.2919 O.3       5      C_F    0.0000
    779 C          32.4224   10.2551   22.8580 C.3       5      C_F    0.0000
    780 C          34.9607   10.1675   28.5811 C.3       5      C_F    0.0000
    781 O          35.6603   10.4887   29.7541 O.3       5      C_F    0.0000
    782 C          34.7993   10.8104   30.8189 C.3       5      C_F    0.0000
    783 O          33.6721   11.5007   30.3409 O.3       5      C_F    0.0000
    784 C          33.9425   12.3122   29.2300 C.3       5      C_F    0.0000
    785 C          33.0631   10.9332   27.2288 C.3       5      C_F    0.0000
    786 C          30.6753   11.7038   23.9107 C.3       5      C_F    0.0000
    787 C          35.5657   11.6772   31.8161 C.3       5      C_F    0.0000
    788 C          34.3117    9.5492   31.5296 C.3       5      C_F    0.0000
    789 C          32.4657    8.6467   20.1627 C.3       5      C_F    0.0000
    790 C          30.0281    8.9219   20.5149 C.3       5      C_F    0.0000
    791 H          35.9664   20.9306   37.6669 H         5      C_F    0.0000
    792 H          34.7093   22.1802   37.9464 H         5      C_F    0.0000
    793 H          34.1540   20.8395   40.1392 H         5      C_F    0.0000
    794 H          35.6387   19.8704   39.8630 H         5      C_F    0.0000
    795 H          36.4547   23.7419   44.3353 H         5      C_F    0.0000
    796 H          35.4679   23.6651   42.8319 H         5      C_F    0.0000
    797 H          35.5200   22.2791   43.9770 H         5      C_F    0.0000
    798 H          38.9479   23.7430   43.5092 H         5      C_F    0.0000
    799 H          39.4244   22.8893   42.0629 H         5      C_F    0.0000
    800 H          37.4845   25.0772   41.5958 H         5      C_F    0.0000
    801 H          38.8768   25.6149   42.5645 H         5      C_F    0.0000
    802 H          33.7914   18.6862   33.9234 H         5      C_F    0.0000
    803 H          32.2189   18.3650   34.7370 H         5      C_F    0.0000
    804 H          30.9973   19.7243   33.0398 H         5      C_F    0.0000
    805 H          32.5460   20.2562   32.2876 H         5      C_F    0.0000
    806 H          32.2907   18.1552   28.1681 H         5      C_F    0.0000
    807 H          30.6260   17.5178   27.8706 H         5      C_F    0.0000
    808 H          33.6402   16.7310   30.1207 H         5      C_F    0.0000
    809 H          32.6511   15.9336   31.4073 H         5      C_F    0.0000
    810 H          32.7661   15.1933   29.8031 H         5      C_F    0.0000
    811 H          30.1228   15.8840   31.1585 H         5      C_F    0.0000
    812 H          29.2917   16.8276   29.8528 H         5      C_F    0.0000
    813 H          26.9820   13.6267   27.8119 H         5      C_F    0.0000
    814 H          26.9541   12.3602   29.1172 H         5      C_F    0.0000
    815 H          30.6701   12.0362   29.4521 H         5      C_F    0.0000
    816 H          29.0756   11.5913   30.1990 H         5      C_F    0.0000
    817 H          29.2732   14.1983   26.6919 H         5      C_F    0.0000
    818 H          30.7722   13.4816   27.3892 H         5      C_F    0.0000
    819 H          29.6350   12.4568   26.4856 H         5      C_F    0.0000
    820 H          29.5008    9.7293   26.2595 H         5      C_F    0.0000
    821 H          29.1430    8.0394   25.8932 H         5      C_F    0.0000
    822 H          32.1127    7.8681   28.2120 H         5      C_F    0.0000
    823 H          31.0043    6.6800   28.9585 H         5      C_F    0.0000
    824 H          28.6847    7.3687   29.4573 H         5      C_F    0.0000
    825 H          27.7802    8.3103   28.2243 H         5      C_F    0.0000
    826 H          28.4619    6.7025   27.8081 H         5      C_F    0.0000
    827 H          33.5960    7.8131   26.5061 H         5      C_F    0.0000
    828 H          33.5359    6.2523   25.6307 H         5      C_F    0.0000
    829 H          33.4275    7.7996   24.7250 H         5      C_F    0.0000
    830 H          31.4417    5.4985   24.4767 H         5      C_F    0.0000
    831 H          29.9139    6.4108   24.6053 H         5      C_F    0.0000
    832 H          31.2606    7.0635   23.6182 H         5      C_F    0.0000
    833 H          24.1714    9.5251   26.3545 H         5      C_F    0.0000
    834 H          23.0898    9.8646   27.6982 H         5      C_F    0.0000
    835 H          26.3331    9.9300   29.6028 H         5      C_F    0.0000
    836 H          25.3897   11.3920   30.0442 H         5      C_F    0.0000
    837 H          24.2166   12.2721   26.6347 H         5      C_F    0.0000
    838 H          23.3752   12.0861   28.2141 H         5      C_F    0.0000
    839 H          24.8945   12.9730   28.1409 H         5      C_F    0.0000
    840 H          26.2368    7.7309   30.0029 H         5      C_F    0.0000
    841 H          24.9724    7.3873   31.2209 H         5      C_F    0.0000
    842 H          25.0711    6.4089   29.7141 H         5      C_F    0.0000
    843 H          22.5514    7.8303   30.7368 H         5      C_F    0.0000
    844 H          22.0234    8.5787   29.2031 H         5      C_F    0.0000
    845 H          22.6383    6.8936   29.2045 H         5      C_F    0.0000
    846 H          34.2090   14.7761   27.6865 H         5      C_F    0.0000
    847 H          32.9056   13.6116   27.2004 H         5      C_F    0.0000
    848 H          32.1993   14.9728   23.8001 H         5      C_F    0.0000
    849 H          31.5011   13.9662   25.1210 H         5      C_F    0.0000
    850 H          35.0658   16.3811   25.7505 H         5      C_F    0.0000
    851 H          35.1734   15.0290   24.5762 H         5      C_F    0.0000
    852 H          34.1646   16.4443   24.1951 H         5      C_F    0.0000
    853 H          33.5015   12.5053   20.9146 H         5      C_F    0.0000
    854 H          34.5137   13.6149   22.0242 H         5      C_F    0.0000
    855 H          31.0356   12.7341   21.0171 H         5      C_F    0.0000
    856 H          29.9057   11.4804   21.5454 H         5      C_F    0.0000
    857 H          33.3980   10.2269   22.3255 H         5      C_F    0.0000
    858 H          32.6290    9.9640   23.9114 H         5      C_F    0.0000
    859 H          35.6623    9.6722   27.8776 H         5      C_F    0.0000
    860 H          34.2220    9.3728   28.8195 H         5      C_F    0.0000
    861 H          34.7590   13.0231   29.4845 H         5      C_F    0.0000
    862 H          33.0114   12.8987   29.0808 H         5      C_F    0.0000
    863 H          32.4505   11.7190   26.7495 H         5      C_F    0.0000
    864 H          33.3735   10.2419   26.4142 H         5      C_F    0.0000
    865 H          32.3699   10.3855   27.9005 H         5      C_F    0.0000
    866 H          31.1315   11.5926   24.9173 H         5      C_F    0.0000
    867 H          30.1135   12.6639   23.8679 H         5      C_F    0.0000
    868 H          29.9248   10.8855   23.8274 H         5      C_F    0.0000
    869 H          36.1346   12.4932   31.3168 H         5      C_F    0.0000
    870 H          34.8782   12.1515   32.5535 H         5      C_F    0.0000
    871 H          36.3043   11.0720   32.3898 H         5      C_F    0.0000
    872 H          35.1641    8.9013   31.8366 H         5      C_F    0.0000
    873 H          33.7347    9.8093   32.4461 H         5      C_F    0.0000
    874 H          33.6360    8.9315   30.8970 H         5      C_F    0.0000
    875 H          33.4970    9.0073   20.3746 H         5      C_F    0.0000
    876 H          32.4256    7.5705   20.4478 H         5      C_F    0.0000
    877 H          32.3196    8.7086   19.0601 H         5      C_F    0.0000
    878 H          29.9483    7.8326   20.7346 H         5      C_F    0.0000
    879 H          29.2020    9.4176   21.0710 H         5      C_F    0.0000
    880 H          29.8316    9.0613   19.4273 H         5      C_F    0.0000
    881 S          64.4246   68.6177   39.0742 S         6      C_G    0.0000
    882 S          66.3172   67.7609   39.4159 S         6      C_G    0.0000
    883 C          63.0781   67.9612   40.2844 C.3       6      C_G    0.0000
    884 C          61.5577   68.2968   39.8806 C.3       6      C_G    0.0000
    885 O          60.3891   67.5818   40.4914 O.3       6      C_G    0.0000
    886 C          59.3424   68.3105   41.0876 C.2       6      C_G    0.0000
    887 O          59.4851   69.4660   41.4428 O.2       6      C_G    0.0000
    888 C          57.8721   67.6050   41.2880 C.2       6      C_G    0.0000
    889 C          57.4388   66.6359   40.1603 C.3       6      C_G    0.0000
    890 C          57.6002   67.0808   42.7537 C.3       6      C_G    0.0000
    891 C          58.0514   65.7316   43.3882 C.2       6      C_G    0.0000
    892 C          67.7180   69.0056   39.0329 C.3       6      C_G    0.0000
    893 C          69.2042   68.4556   38.8824 C.3       6      C_G    0.0000
    894 O          70.2037   69.4883   38.7948 O.3       6      C_G    0.0000
    895 C          71.5685   69.2187   38.6462 C.2       6      C_G    0.0000
    896 C          72.5148   70.4827   38.6030 C.3       6      C_G    0.0000
    897 O          72.0418   68.1093   38.5448 O.2       6      C_G    0.0000
    898 C          73.8825   70.2145   39.3186 C.3       6      C_G    0.0000
    899 C          71.8126   71.6690   39.2922 C.3       6      C_G    0.0000
    900 C          72.7934   70.8175   37.1137 C.3       6      C_G    0.0000
    901 O          73.7358   71.8588   36.9444 O.3       6      C_G    0.0000
    902 O          74.5114   71.4149   39.7256 O.3       6      C_G    0.0000
    903 C          73.9844   72.2851   35.6616 C.2       6      C_G    0.0000
    904 C          75.0706   73.3828   35.5579 C.3       6      C_G    0.0000
    905 O          73.4168   71.8544   34.6815 O.2       6      C_G    0.0000
    906 C          75.8594   73.1602   34.2398 C.3       6      C_G    0.0000
    907 C          74.3446   74.7469   35.5450 C.3       6      C_G    0.0000
    908 C          76.0411   73.3006   36.7508 C.3       6      C_G    0.0000
    909 O          75.2635   75.7970   35.3982 O.3       6      C_G    0.0000
    910 O          76.9696   74.0231   34.1652 O.3       6      C_G    0.0000
    911 C          74.8124   77.0834   35.4726 C.2       6      C_G    0.0000
    912 C          75.9327   78.1054   35.2354 C.3       6      C_G    0.0000
    913 O          73.6531   77.3772   35.6766 O.2       6      C_G    0.0000
    914 C          77.3232   77.6836   35.7453 C.3       6      C_G    0.0000
    915 O          77.5221   78.1961   37.0356 O.3       6      C_G    0.0000
    916 C          77.6118   79.6009   37.0663 C.3       6      C_G    0.0000
    917 O          76.7296   80.1800   36.1352 O.3       6      C_G    0.0000
    918 C          75.5650   79.4215   35.9434 C.3       6      C_G    0.0000
    919 C          75.9895   78.3294   33.7108 C.3       6      C_G    0.0000
    920 C          77.2652   80.0719   38.4775 C.3       6      C_G    0.0000
    921 C          79.0293   80.0637   36.7356 C.3       6      C_G    0.0000
    922 C          77.4406   74.6778   33.0602 C.2       6      C_G    0.0000
    923 C          77.0436   74.2062   31.6383 C.3       6      C_G    0.0000
    924 O          78.2187   75.5956   33.2207 O.2       6      C_G    0.0000
    925 C          77.9458   74.9198   30.5989 C.3       6      C_G    0.0000
    926 O          77.4305   76.2033   30.3546 O.3       6      C_G    0.0000
    927 C          76.2285   76.1672   29.6272 C.3       6      C_G    0.0000
    928 O          75.5063   75.0005   29.9347 O.3       6      C_G    0.0000
    929 C          75.6022   74.6119   31.2826 C.3       6      C_G    0.0000
    930 C          77.3104   72.6984   31.4535 C.3       6      C_G    0.0000
    931 C          75.4112   77.4120   29.9630 C.3       6      C_G    0.0000
    932 C          76.5172   76.1712   28.1267 C.3       6      C_G    0.0000
    933 C          75.7296   71.3889   40.3572 C.2       6      C_G    0.0000
    934 C          76.1294   72.7530   40.9850 C.3       6      C_G    0.0000
    935 O          76.4216   70.3985   40.4557 O.2       6      C_G    0.0000
    936 C          75.0289   73.8179   40.7880 C.3       6      C_G    0.0000
    937 C          77.4788   73.1940   40.3574 C.3       6      C_G    0.0000
    938 C          76.3335   72.4982   42.4964 C.3       6      C_G    0.0000
    939 O          77.8581   74.4704   40.8172 O.3       6      C_G    0.0000
    940 O          75.2439   74.9491   41.5990 O.3       6      C_G    0.0000
    941 C          79.1922   74.7967   40.7626 C.2       6      C_G    0.0000
    942 C          79.8997   74.8068   41.9115 C.2       6      C_G    0.0000
    943 C          79.8115   75.4408   39.5120 C.3       6      C_G    0.0000
    944 C          74.7145   76.1978   41.4180 C.2       6      C_G    0.0000
    945 C          74.1425   76.5956   40.0352 C.3       6      C_G    0.0000
    946 O          74.7751   76.9955   42.3289 O.2       6      C_G    0.0000
    947 C          81.2969   75.0829   39.3072 C.3       6      C_G    0.0000
    948 O          82.1223   76.0932   39.8298 O.3       6      C_G    0.0000
    949 C          81.9823   77.3297   39.1709 C.3       6      C_G    0.0000
    950 O          80.6436   77.5714   38.8137 O.3       6      C_G    0.0000
    951 C          79.7258   76.9660   39.6849 C.3       6      C_G    0.0000
    952 C          73.5680   78.0381   40.0557 C.3       6      C_G    0.0000
    953 O          72.2073   77.9973   40.3954 O.3       6      C_G    0.0000
    954 C          71.4182   77.4366   39.3749 C.3       6      C_G    0.0000
    955 O          72.1178   76.3999   38.7336 O.3       6      C_G    0.0000
    956 C          72.9790   75.6949   39.5864 C.3       6      C_G    0.0000
    957 C          75.3152   76.6524   39.0343 C.3       6      C_G    0.0000
    958 C          79.0662   75.0487   38.2194 C.3       6      C_G    0.0000
    959 C          70.1316   76.8986   39.9983 C.3       6      C_G    0.0000
    960 C          71.0595   78.4833   38.3218 C.3       6      C_G    0.0000
    961 C          82.4704   78.4273   40.1153 C.3       6      C_G    0.0000
    962 C          82.8345   77.3700   37.9037 C.3       6      C_G    0.0000
    963 H          63.2665   68.4553   41.2630 H         6      C_G    0.0000
    964 H          63.2161   66.8678   40.4281 H         6      C_G    0.0000
    965 H          61.4882   68.0058   38.8051 H         6      C_G    0.0000
    966 H          61.4302   69.4042   39.9280 H         6      C_G    0.0000
    967 H          56.4507   66.1390   40.3745 H         6      C_G    0.0000
    968 H          58.1777   65.8456   39.9605 H         6      C_G    0.0000
    969 H          57.2629   67.2001   39.2099 H         6      C_G    0.0000
    970 H          56.4812   66.9418   42.8751 H         6      C_G    0.0000
    971 H          57.8164   67.8671   43.5144 H         6      C_G    0.0000
    972 H          58.5530   65.1490   42.5992 H         6      C_G    0.0000
    973 H          57.1484   65.1279   43.6914 H         6      C_G    0.0000
    974 H          67.7521   69.7549   39.8584 H         6      C_G    0.0000
    975 H          67.4987   69.5585   38.0878 H         6      C_G    0.0000
    976 H          69.2904   67.8277   37.9650 H         6      C_G    0.0000
    977 H          69.4651   67.8190   39.7585 H         6      C_G    0.0000
    978 H          73.7096   69.6090   40.2377 H         6      C_G    0.0000
    979 H          74.5752   69.6514   38.6518 H         6      C_G    0.0000
    980 H          71.6469   71.4499   40.3715 H         6      C_G    0.0000
    981 H          70.8340   71.9083   38.8228 H         6      C_G    0.0000
    982 H          72.4122   72.6028   39.2249 H         6      C_G    0.0000
    983 H          71.8359   71.1116   36.6277 H         6      C_G    0.0000
    984 H          73.1949   69.9124   36.5993 H         6      C_G    0.0000
    985 H          76.2387   72.1140   34.2255 H         6      C_G    0.0000
    986 H          75.1809   73.3334   33.3874 H         6      C_G    0.0000
    987 H          73.7896   74.8778   36.5027 H         6      C_G    0.0000
    988 H          73.6222   74.7891   34.6965 H         6      C_G    0.0000
    989 H          76.5323   72.3040   36.8156 H         6      C_G    0.0000
    990 H          75.5172   73.4944   37.7097 H         6      C_G    0.0000
    991 H          76.8477   74.0611   36.6758 H         6      C_G    0.0000
    992 H          77.4606   76.5835   35.7983 H         6      C_G    0.0000
    993 H          78.1366   78.0496   35.0830 H         6      C_G    0.0000
    994 H          75.0759   79.2546   36.9281 H         6      C_G    0.0000
    995 H          74.8605   80.0278   35.3303 H         6      C_G    0.0000
    996 H          74.9961   78.6234   33.3024 H         6      C_G    0.0000
    997 H          76.3089   77.4036   33.1839 H         6      C_G    0.0000
    998 H          76.7087   79.1350   33.4397 H         6      C_G    0.0000
    999 H          76.2484   79.7530   38.7963 H         6      C_G    0.0000
   1000 H          77.2988   81.1826   38.5532 H         6      C_G    0.0000
   1001 H          77.9832   79.6636   39.2244 H         6      C_G    0.0000
   1002 H          79.1179   81.1703   36.8280 H         6      C_G    0.0000
   1003 H          79.3357   79.8074   35.6975 H         6      C_G    0.0000
   1004 H          79.7773   79.6118   37.4240 H         6      C_G    0.0000
   1005 H          79.0005   75.0144   30.9383 H         6      C_G    0.0000
   1006 H          78.0118   74.3712   29.6347 H         6      C_G    0.0000
   1007 H          75.2288   75.4327   31.9322 H         6      C_G    0.0000
   1008 H          74.9031   73.7529   31.3897 H         6      C_G    0.0000
   1009 H          78.3606   72.4455   31.7244 H         6      C_G    0.0000
   1010 H          77.1463   72.3837   30.3983 H         6      C_G    0.0000
   1011 H          76.6418   72.0481   32.0516 H         6      C_G    0.0000
   1012 H          75.1693   77.4857   31.0447 H         6      C_G    0.0000
   1013 H          74.4443   77.4229   29.4105 H         6      C_G    0.0000
   1014 H          75.9667   78.3392   29.6936 H         6      C_G    0.0000
   1015 H          75.5713   76.1910   27.5387 H         6      C_G    0.0000
   1016 H          77.0803   75.2703   27.7964 H         6      C_G    0.0000
   1017 H          77.1159   77.0634   27.8322 H         6      C_G    0.0000
   1018 H          74.0324   73.4188   41.0810 H         6      C_G    0.0000
   1019 H          75.0369   74.0732   39.7193 H         6      C_G    0.0000
   1020 H          78.2820   72.4667   40.6152 H         6      C_G    0.0000
   1021 H          77.3768   73.2195   39.2517 H         6      C_G    0.0000
   1022 H          75.3922   72.1380   42.9701 H         6      C_G    0.0000
   1023 H          76.6471   73.4184   43.0385 H         6      C_G    0.0000
   1024 H          77.1241   71.7396   42.6923 H         6      C_G    0.0000
   1025 H          80.9407   75.1501   41.9719 H         6      C_G    0.0000
   1026 H          79.4422   74.4674   42.8524 H         6      C_G    0.0000
   1027 H          81.5554   74.1207   39.8027 H         6      C_G    0.0000
   1028 H          81.5612   74.9430   38.2370 H         6      C_G    0.0000
   1029 H          79.9391   77.3018   40.7231 H         6      C_G    0.0000
   1030 H          78.7069   77.3364   39.4362 H         6      C_G    0.0000
   1031 H          74.0867   78.7192   40.7624 H         6      C_G    0.0000
   1032 H          73.6696   78.5494   39.0746 H         6      C_G    0.0000
   1033 H          72.3995   75.3013   40.4502 H         6      C_G    0.0000
   1034 H          73.3227   74.8296   38.9812 H         6      C_G    0.0000
   1035 H          75.8488   75.6959   38.8828 H         6      C_G    0.0000
   1036 H          76.0824   77.3860   39.3678 H         6      C_G    0.0000
   1037 H          74.9614   76.9571   38.0276 H         6      C_G    0.0000
   1038 H          77.9928   75.3308   38.2641 H         6      C_G    0.0000
   1039 H          79.1491   73.9559   38.0236 H         6      C_G    0.0000
   1040 H          79.4782   75.5699   37.3259 H         6      C_G    0.0000
   1041 H          70.3248   76.3042   40.9194 H         6      C_G    0.0000
   1042 H          69.5794   76.2428   39.2867 H         6      C_G    0.0000
   1043 H          69.4473   77.7289   40.2867 H         6      C_G    0.0000
   1044 H          70.5984   79.3846   38.7862 H         6      C_G    0.0000
   1045 H          70.3330   78.0708   37.5851 H         6      C_G    0.0000
   1046 H          71.9416   78.8258   37.7361 H         6      C_G    0.0000
   1047 H          81.9127   78.4341   41.0783 H         6      C_G    0.0000
   1048 H          82.3549   79.4366   39.6581 H         6      C_G    0.0000
   1049 H          83.5477   78.2918   40.3643 H         6      C_G    0.0000
   1050 H          82.7945   78.3767   37.4284 H         6      C_G    0.0000
   1051 H          82.4924   76.6435   37.1340 H         6      C_G    0.0000
   1052 H          83.9026   77.1450   38.1264 H         6      C_G    0.0000
   1053 S           6.8852   72.2343    4.7457 S         7      C_H    0.0000
   1054 S           6.2083   74.1884    5.1408 S         7      C_H    0.0000
   1055 C           6.2428   71.5469    3.0652 C.3       7      C_H    0.0000
   1056 C           6.4246   69.9637    2.8470 C.3       7      C_H    0.0000
   1057 O           5.6825   69.2103    1.7832 O.3       7      C_H    0.0000
   1058 C           6.3819   68.4103    0.8597 C.2       7      C_H    0.0000
   1059 O           7.5725   68.5580    0.6541 O.2       7      C_H    0.0000
   1060 C           5.5890   67.2193    0.0517 C.2       7      C_H    0.0000
   1061 C           4.4908   66.4837    0.8589 C.3       7      C_H    0.0000
   1062 C           5.1823   67.6003   -1.4269 C.3       7      C_H    0.0000
   1063 C           3.9348   68.4036   -1.9011 C.2       7      C_H    0.0000
   1064 C           7.5146   75.1874    6.1173 C.3       7      C_H    0.0000
   1065 C           7.0666   76.5448    6.8177 C.3       7      C_H    0.0000
   1066 O           8.1592   77.3151    7.3525 O.3       7      C_H    0.0000
   1067 C           7.9808   78.5328    8.0180 C.2       7      C_H    0.0000
   1068 C           9.3031   79.2475    8.5033 C.3       7      C_H    0.0000
   1069 O           6.9055   79.0427    8.2393 O.2       7      C_H    0.0000
   1070 C           9.2054   80.8062    8.3789 C.3       7      C_H    0.0000
   1071 C          10.4914   78.7505    7.6568 C.3       7      C_H    0.0000
   1072 C           9.5201   78.8834    9.9960 C.3       7      C_H    0.0000
   1073 O          10.6095   79.5685   10.5831 O.3       7      C_H    0.0000
   1074 O          10.4820   81.4139    8.3221 O.3       7      C_H    0.0000
   1075 C          10.9340   79.2483   11.8798 C.2       7      C_H    0.0000
   1076 C          12.0962   80.0847   12.4673 C.3       7      C_H    0.0000
   1077 O          10.3738   78.3910   12.5275 O.2       7      C_H    0.0000
   1078 C          11.8138   80.3127   13.9764 C.3       7      C_H    0.0000
   1079 C          13.3949   79.2722   12.2637 C.3       7      C_H    0.0000
   1080 C          12.1970   81.4477   11.7576 C.3       7      C_H    0.0000
   1081 O          14.4933   79.9438   12.8213 O.3       7      C_H    0.0000
   1082 O          12.7474   81.2072   14.5341 O.3       7      C_H    0.0000
   1083 C          15.7435   79.4250   12.6431 C.2       7      C_H    0.0000
   1084 C          16.8208   80.2482   13.3624 C.3       7      C_H    0.0000
   1085 O          15.9665   78.4142   12.0102 O.2       7      C_H    0.0000
   1086 C          16.5535   81.7634   13.4271 C.3       7      C_H    0.0000
   1087 O          17.1955   82.3966   12.3528 O.3       7      C_H    0.0000
   1088 C          18.6000   82.3424   12.4367 C.3       7      C_H    0.0000
   1089 O          19.0233   81.1102   12.9689 O.3       7      C_H    0.0000
   1090 C          18.1649   80.0507   12.6390 C.3       7      C_H    0.0000
   1091 C          16.9079   79.6792   14.7929 C.3       7      C_H    0.0000
   1092 C          19.1709   82.5288   11.0322 C.3       7      C_H    0.0000
   1093 C          19.1360   83.4596   13.3297 C.3       7      C_H    0.0000
   1094 C          13.3318   81.1359   15.7690 C.2       7      C_H    0.0000
   1095 C          12.7033   80.2656   16.8869 C.3       7      C_H    0.0000
   1096 O          14.3164   81.8130   15.9820 O.2       7      C_H    0.0000
   1097 C          13.3845   80.6078   18.2368 C.3       7      C_H    0.0000
   1098 O          14.5977   79.9058   18.3247 O.3       7      C_H    0.0000
   1099 C          14.4047   78.5260   18.5095 C.3       7      C_H    0.0000
   1100 O          13.2201   78.1094   17.8768 O.3       7      C_H    0.0000
   1101 C          12.9650   78.7660   16.6599 C.3       7      C_H    0.0000
   1102 C          11.2092   80.5961   17.0806 C.3       7      C_H    0.0000
   1103 C          15.6099   77.7792   17.9437 C.3       7      C_H    0.0000
   1104 C          14.2930   78.2016   19.9985 C.3       7      C_H    0.0000
   1105 C          10.6058   82.7774    8.2281 C.2       7      C_H    0.0000
   1106 C          12.0479   83.2449    7.8867 C.3       7      C_H    0.0000
   1107 O           9.6835   83.5530    8.3600 O.2       7      C_H    0.0000
   1108 C          13.0044   82.0496    7.6861 C.3       7      C_H    0.0000
   1109 C          12.5299   84.1859    9.0231 C.3       7      C_H    0.0000
   1110 C          11.9488   84.0504    6.5706 C.3       7      C_H    0.0000
   1111 O          13.8680   84.5781    8.8227 O.3       7      C_H    0.0000
   1112 O          14.2180   82.4444    7.0907 O.3       7      C_H    0.0000
   1113 C          14.2875   85.7416    9.4222 C.2       7      C_H    0.0000
   1114 C          14.4561   86.8373    8.6530 C.2       7      C_H    0.0000
   1115 C          14.8590   85.7498   10.8488 C.3       7      C_H    0.0000
   1116 C          15.4015   81.7580    7.1131 C.2       7      C_H    0.0000
   1117 C          15.6267   80.6515    8.1726 C.3       7      C_H    0.0000
   1118 O          16.2816   82.0860    6.3466 O.2       7      C_H    0.0000
   1119 C          14.5968   87.0651   11.6091 C.3       7      C_H    0.0000
   1120 O          15.7100   87.9176   11.5145 O.3       7      C_H    0.0000
   1121 C          16.8668   87.4011   12.1290 C.3       7      C_H    0.0000
   1122 O          16.9733   86.0121   11.9355 O.3       7      C_H    0.0000
   1123 C          16.3829   85.5783   10.7392 C.3       7      C_H    0.0000
   1124 C          17.0176   79.9823    8.0031 C.3       7      C_H    0.0000
   1125 O          16.9057   78.8760    7.1474 O.3       7      C_H    0.0000
   1126 C          16.1960   77.8141    7.7367 C.3       7      C_H    0.0000
   1127 O          15.1606   78.3116    8.5465 O.3       7      C_H    0.0000
   1128 C          14.6036   79.5072    8.0709 C.3       7      C_H    0.0000
   1129 C          15.6797   81.3253    9.5595 C.3       7      C_H    0.0000
   1130 C          14.2951   84.6036   11.7139 C.3       7      C_H    0.0000
   1131 C          15.6221   76.9391    6.6239 C.3       7      C_H    0.0000
   1132 C          17.1119   76.9633    8.6146 C.3       7      C_H    0.0000
   1133 C          18.0800   88.1014   11.5186 C.3       7      C_H    0.0000
   1134 C          16.8549   87.6794   13.6311 C.3       7      C_H    0.0000
   1135 H           6.8373   72.0504    2.2713 H         7      C_H    0.0000
   1136 H           5.1807   71.8446    2.9294 H         7      C_H    0.0000
   1137 H           6.0318   69.5096    3.7881 H         7      C_H    0.0000
   1138 H           7.5188   69.7489    2.8129 H         7      C_H    0.0000
   1139 H           3.9426   65.7170    0.2419 H         7      C_H    0.0000
   1140 H           3.7434   67.1642    1.2935 H         7      C_H    0.0000
   1141 H           4.9506   65.8911    1.6895 H         7      C_H    0.0000
   1142 H           4.9711   66.6397   -1.9917 H         7      C_H    0.0000
   1143 H           6.0490   68.0129   -1.9945 H         7      C_H    0.0000
   1144 H           3.3217   68.6144   -1.0104 H         7      C_H    0.0000
   1145 H           3.2951   67.7607   -2.5714 H         7      C_H    0.0000
   1146 H           8.3368   75.4629    5.4158 H         7      C_H    0.0000
   1147 H           7.9605   74.5584    6.9252 H         7      C_H    0.0000
   1148 H           6.3656   76.3304    7.6579 H         7      C_H    0.0000
   1149 H           6.5345   77.1936    6.0852 H         7      C_H    0.0000
   1150 H           8.6753   81.0721    7.4357 H         7      C_H    0.0000
   1151 H           8.6374   81.2375    9.2349 H         7      C_H    0.0000
   1152 H          10.3602   79.0450    6.5907 H         7      C_H    0.0000
   1153 H          10.6122   77.6470    7.7094 H         7      C_H    0.0000
   1154 H          11.4575   79.1737    8.0080 H         7      C_H    0.0000
   1155 H           9.6955   77.7868   10.0751 H         7      C_H    0.0000
   1156 H           8.6045   79.1443   10.5779 H         7      C_H    0.0000
   1157 H          10.8022   80.7642   14.0839 H         7      C_H    0.0000
   1158 H          11.8566   79.3404   14.4957 H         7      C_H    0.0000
   1159 H          13.5707   79.1263   11.1728 H         7      C_H    0.0000
   1160 H          13.3046   78.2750   12.7548 H         7      C_H    0.0000
   1161 H          11.2504   82.0272   11.8400 H         7      C_H    0.0000
   1162 H          12.4378   81.3241   10.6814 H         7      C_H    0.0000
   1163 H          13.0060   82.0753   12.1891 H         7      C_H    0.0000
   1164 H          15.4763   82.0258   13.3736 H         7      C_H    0.0000
   1165 H          16.9175   82.2088   14.3775 H         7      C_H    0.0000
   1166 H          18.0525   80.0069   11.5335 H         7      C_H    0.0000
   1167 H          18.6577   79.1026   12.9524 H         7      C_H    0.0000
   1168 H          17.0875   78.5803   14.7868 H         7      C_H    0.0000
   1169 H          15.9644   79.8624   15.3525 H         7      C_H    0.0000
   1170 H          17.7371   80.1454   15.3716 H         7      C_H    0.0000
   1171 H          18.8069   81.7579   10.3176 H         7      C_H    0.0000
   1172 H          20.2833   82.4720   11.0365 H         7      C_H    0.0000
   1173 H          18.8880   83.5207   10.6125 H         7      C_H    0.0000
   1174 H          20.2499   83.4601   13.3404 H         7      C_H    0.0000
   1175 H          18.8094   83.3601   14.3883 H         7      C_H    0.0000
   1176 H          18.8067   84.4606   12.9731 H         7      C_H    0.0000
   1177 H          13.5890   81.6948   18.3516 H         7      C_H    0.0000
   1178 H          12.7564   80.3483   19.1161 H         7      C_H    0.0000
   1179 H          13.8114   78.5927   15.9609 H         7      C_H    0.0000
   1180 H          12.0692   78.2596   16.2366 H         7      C_H    0.0000
   1181 H          11.0621   81.6889   17.2375 H         7      C_H    0.0000
   1182 H          10.7877   80.0660   17.9642 H         7      C_H    0.0000
   1183 H          10.5680   80.2879   16.2313 H         7      C_H    0.0000
   1184 H          15.7640   77.9741   16.8610 H         7      C_H    0.0000
   1185 H          15.4973   76.6779   18.0647 H         7      C_H    0.0000
   1186 H          16.5478   78.0836   18.4621 H         7      C_H    0.0000
   1187 H          14.1875   77.1046   20.1608 H         7      C_H    0.0000
   1188 H          13.4105   78.6819   20.4765 H         7      C_H    0.0000
   1189 H          15.1969   78.5393   20.5551 H         7      C_H    0.0000
   1190 H          12.5599   81.2956    6.9990 H         7      C_H    0.0000
   1191 H          13.1605   81.6113    8.6816 H         7      C_H    0.0000
   1192 H          11.8919   85.0978    9.0679 H         7      C_H    0.0000
   1193 H          12.4462   83.6568    9.9961 H         7      C_H    0.0000
   1194 H          11.5636   83.4137    5.7421 H         7      C_H    0.0000
   1195 H          12.9358   84.4523    6.2493 H         7      C_H    0.0000
   1196 H          11.2730   84.9298    6.6653 H         7      C_H    0.0000
   1197 H          14.8809   87.7763    9.0312 H         7      C_H    0.0000
   1198 H          14.1708   86.8235    7.5907 H         7      C_H    0.0000
   1199 H          13.7062   87.5969   11.2064 H         7      C_H    0.0000
   1200 H          14.3797   86.9021   12.6867 H         7      C_H    0.0000
   1201 H          16.8275   86.1446    9.8920 H         7      C_H    0.0000
   1202 H          16.6512   84.5106   10.5808 H         7      C_H    0.0000
   1203 H          17.7977   80.6614    7.5998 H         7      C_H    0.0000
   1204 H          17.4430   79.6369    8.9695 H         7      C_H    0.0000
   1205 H          14.2483   79.3574    7.0277 H         7      C_H    0.0000
   1206 H          13.7148   79.6755    8.7150 H         7      C_H    0.0000
   1207 H          14.7563   81.8545    9.8590 H         7      C_H    0.0000
   1208 H          16.4965   82.0797    9.5998 H         7      C_H    0.0000
   1209 H          15.8634   80.5753   10.3567 H         7      C_H    0.0000
   1210 H          14.4985   83.6102   11.2604 H         7      C_H    0.0000
   1211 H          13.1984   84.7180   11.8669 H         7      C_H    0.0000
   1212 H          14.7618   84.5752   12.7244 H         7      C_H    0.0000
   1213 H          15.1309   77.5392    5.8254 H         7      C_H    0.0000
   1214 H          14.8642   76.2248    7.0197 H         7      C_H    0.0000
   1215 H          16.4215   76.3391    6.1321 H         7      C_H    0.0000
   1216 H          18.0147   76.6287    8.0545 H         7      C_H    0.0000
   1217 H          16.5801   76.0542    8.9771 H         7      C_H    0.0000
   1218 H          17.4647   77.5040    9.5210 H         7      C_H    0.0000
   1219 H          18.1330   87.9682   10.4150 H         7      C_H    0.0000
   1220 H          19.0316   87.7102   11.9458 H         7      C_H    0.0000
   1221 H          18.0494   89.1979   11.7127 H         7      C_H    0.0000
   1222 H          17.8080   87.3503   14.1049 H         7      C_H    0.0000
   1223 H          16.0372   87.1418   14.1600 H         7      C_H    0.0000
   1224 H          16.7324   88.7666   13.8408 H         7      C_H    0.0000
   1225 S          36.2594   56.6037   43.5448 S         8      C_I    0.0000
   1226 S          34.3700   57.5323   43.5694 S         8      C_I    0.0000
   1227 C          36.1901   54.7554   44.0816 C.3       8      C_I    0.0000
   1228 C          37.6086   54.0758   44.4178 C.3       8      C_I    0.0000
   1229 O          37.7207   52.7865   45.1762 O.3       8      C_I    0.0000
   1230 C          38.4558   51.7103   44.6440 C.2       8      C_I    0.0000
   1231 O          38.7215   51.6379   43.4583 O.2       8      C_I    0.0000
   1232 C          39.0038   50.5269   45.6436 C.2       8      C_I    0.0000
   1233 C          39.4517   50.9970   47.0497 C.3       8      C_I    0.0000
   1234 C          38.1270   49.2124   45.6319 C.3       8      C_I    0.0000
   1235 C          36.8181   48.9262   46.4264 C.2       8      C_I    0.0000
   1236 C          34.2306   58.8507   42.1908 C.3       8      C_I    0.0000
   1237 C          33.0373   59.9018   42.2613 C.3       8      C_I    0.0000
   1238 O          32.9054   60.7166   41.0815 O.3       8      C_I    0.0000
   1239 C          31.9291   61.7094   40.9450 C.2       8      C_I    0.0000
   1240 C          31.9207   62.4753   39.5635 C.3       8      C_I    0.0000
   1241 O          31.1269   62.0054   41.8017 O.2       8      C_I    0.0000
   1242 C          30.4666   62.8273   39.0985 C.3       8      C_I    0.0000
   1243 C          32.5916   61.5967   38.4895 C.3       8      C_I    0.0000
   1244 C          32.7143   63.7960   39.7471 C.3       8      C_I    0.0000
   1245 O          32.6704   64.6342   38.6085 O.3       8      C_I    0.0000
   1246 O          30.3949   63.0425   37.7018 O.3       8      C_I    0.0000
   1247 C          33.4149   65.7891   38.6438 C.2       8      C_I    0.0000
   1248 C          33.2643   66.6788   37.3862 C.3       8      C_I    0.0000
   1249 O          34.1330   66.1056   39.5670 O.2       8      C_I    0.0000
   1250 C          33.3472   68.1635   37.8310 C.3       8      C_I    0.0000
   1251 C          34.4245   66.3217   36.4299 C.3       8      C_I    0.0000
   1252 C          31.9070   66.4281   36.7032 C.3       8      C_I    0.0000
   1253 O          34.3884   67.1284   35.2826 O.3       8      C_I    0.0000
   1254 O          33.0508   69.0277   36.7595 O.3       8      C_I    0.0000
   1255 C          35.2759   66.8821   34.2749 C.2       8      C_I    0.0000
   1256 C          35.1392   67.8873   33.1231 C.3       8      C_I    0.0000
   1257 O          36.0937   65.9863   34.3050 O.2       8      C_I    0.0000
   1258 C          33.7087   68.3946   32.8624 C.3       8      C_I    0.0000
   1259 O          33.1098   67.6098   31.8662 O.3       8      C_I    0.0000
   1260 C          33.7111   67.7645   30.6025 C.3       8      C_I    0.0000
   1261 O          35.1043   67.9208   30.7259 O.3       8      C_I    0.0000
   1262 C          35.6350   67.2275   31.8240 C.3       8      C_I    0.0000
   1263 C          36.0496   69.0778   33.4860 C.3       8      C_I    0.0000
   1264 C          33.3962   66.5247   29.7676 C.3       8      C_I    0.0000
   1265 C          33.1535   68.9893   29.8801 C.3       8      C_I    0.0000
   1266 C          33.6563   70.2170   36.4588 C.2       8      C_I    0.0000
   1267 C          34.4824   70.9717   37.5313 C.3       8      C_I    0.0000
   1268 O          33.4826   70.6907   35.3548 O.2       8      C_I    0.0000
   1269 C          34.7871   72.4031   37.0195 C.3       8      C_I    0.0000
   1270 O          35.8927   72.3510   36.1548 O.3       8      C_I    0.0000
   1271 C          37.0935   72.0920   36.8376 C.3       8      C_I    0.0000
   1272 O          36.8509   71.2863   37.9642 O.3       8      C_I    0.0000
   1273 C          35.8546   70.3146   37.7636 C.3       8      C_I    0.0000
   1274 C          33.6739   71.1593   38.8313 C.3       8      C_I    0.0000
   1275 C          38.0658   71.4049   35.8822 C.3       8      C_I    0.0000
   1276 C          37.7266   73.3998   37.3104 C.3       8      C_I    0.0000
   1277 C          29.2059   63.3783   37.1043 C.2       8      C_I    0.0000
   1278 C          29.2474   63.2911   35.5534 C.3       8      C_I    0.0000
   1279 O          28.2023   63.6806   37.7133 O.2       8      C_I    0.0000
   1280 C          30.6190   62.7974   35.0446 C.3       8      C_I    0.0000
   1281 C          28.8893   64.6897   34.9835 C.3       8      C_I    0.0000
   1282 C          28.1520   62.2808   35.1405 C.3       8      C_I    0.0000
   1283 O          28.9949   64.7066   33.5788 O.3       8      C_I    0.0000
   1284 O          30.5726   62.4319   33.6854 O.3       8      C_I    0.0000
   1285 C          28.2758   65.6592   32.8972 C.2       8      C_I    0.0000
   1286 C          27.1662   65.2747   32.2328 C.2       8      C_I    0.0000
   1287 C          28.8557   67.0541   32.6144 C.3       8      C_I    0.0000
   1288 C          31.6360   62.3205   32.8315 C.2       8      C_I    0.0000
   1289 C          32.9796   63.0032   33.1864 C.3       8      C_I    0.0000
   1290 O          31.4782   61.7501   31.7734 O.2       8      C_I    0.0000
   1291 C          27.7858   68.1614   32.5383 C.3       8      C_I    0.0000
   1292 O          27.4249   68.4048   31.2021 O.3       8      C_I    0.0000
   1293 C          28.4812   68.9061   30.4174 C.3       8      C_I    0.0000
   1294 O          29.7052   68.3044   30.7611 O.3       8      C_I    0.0000
   1295 C          29.5561   66.9970   31.2470 C.3       8      C_I    0.0000
   1296 C          34.0563   62.7283   32.1017 C.3       8      C_I    0.0000
   1297 O          34.7743   61.5699   32.4352 O.3       8      C_I    0.0000
   1298 C          35.6025   61.7586   33.5564 C.3       8      C_I    0.0000
   1299 O          34.9793   62.6123   34.4828 O.3       8      C_I    0.0000
   1300 C          33.5827   62.4898   34.5052 C.3       8      C_I    0.0000
   1301 C          32.7617   64.5300   33.1476 C.3       8      C_I    0.0000
   1302 C          29.8857   67.4885   33.6778 C.3       8      C_I    0.0000
   1303 C          35.8733   60.3966   34.1927 C.3       8      C_I    0.0000
   1304 C          36.9331   62.3921   33.1546 C.3       8      C_I    0.0000
   1305 C          28.1593   68.6196   28.9514 C.3       8      C_I    0.0000
   1306 C          28.6200   70.4171   30.5940 C.3       8      C_I    0.0000
   1307 H          35.7612   54.1940   43.2223 H         8      C_I    0.0000
   1308 H          35.4885   54.6481   44.9367 H         8      C_I    0.0000
   1309 H          38.1082   54.8052   45.0994 H         8      C_I    0.0000
   1310 H          38.2046   54.0491   43.4750 H         8      C_I    0.0000
   1311 H          39.7651   50.1407   47.7112 H         8      C_I    0.0000
   1312 H          38.6774   51.5692   47.5823 H         8      C_I    0.0000
   1313 H          40.3681   51.6348   46.9722 H         8      C_I    0.0000
   1314 H          38.7536   48.3684   46.0577 H         8      C_I    0.0000
   1315 H          37.9407   48.8560   44.5917 H         8      C_I    0.0000
   1316 H          36.6305   49.7967   47.0750 H         8      C_I    0.0000
   1317 H          36.9730   48.0512   47.1208 H         8      C_I    0.0000
   1318 H          34.1145   58.3222   41.2154 H         8      C_I    0.0000
   1319 H          35.1682   59.4547   42.1347 H         8      C_I    0.0000
   1320 H          33.1810   60.5886   43.1279 H         8      C_I    0.0000
   1321 H          32.0691   59.3697   42.4033 H         8      C_I    0.0000
   1322 H          29.7845   61.9781   39.3331 H         8      C_I    0.0000
   1323 H          30.0911   63.7353   39.6240 H         8      C_I    0.0000
   1324 H          32.0031   60.6656   38.3246 H         8      C_I    0.0000
   1325 H          33.6313   61.3171   38.7649 H         8      C_I    0.0000
   1326 H          32.6725   62.1228   37.5135 H         8      C_I    0.0000
   1327 H          33.7755   63.5472   39.9743 H         8      C_I    0.0000
   1328 H          32.2875   64.3687   40.6042 H         8      C_I    0.0000
   1329 H          32.5914   68.3377   38.6292 H         8      C_I    0.0000
   1330 H          34.3623   68.3622   38.2146 H         8      C_I    0.0000
   1331 H          34.3370   65.2523   36.1280 H         8      C_I    0.0000
   1332 H          35.4039   66.4773   36.9400 H         8      C_I    0.0000
   1333 H          31.0554   66.6218   37.3932 H         8      C_I    0.0000
   1334 H          31.8281   65.3838   36.3363 H         8      C_I    0.0000
   1335 H          31.7676   67.0826   35.8162 H         8      C_I    0.0000
   1336 H          33.0542   68.3537   33.7579 H         8      C_I    0.0000
   1337 H          33.6979   69.4573   32.5389 H         8      C_I    0.0000
   1338 H          35.3439   66.1567   31.7508 H         8      C_I    0.0000
   1339 H          36.7453   67.2674   31.7480 H         8      C_I    0.0000
   1340 H          37.0922   68.7477   33.6953 H         8      C_I    0.0000
   1341 H          35.6754   69.6037   34.3916 H         8      C_I    0.0000
   1342 H          36.0996   69.8241   32.6611 H         8      C_I    0.0000
   1343 H          33.7576   65.5865   30.2435 H         8      C_I    0.0000
   1344 H          33.8687   66.5840   28.7607 H         8      C_I    0.0000
   1345 H          32.2989   66.4109   29.6163 H         8      C_I    0.0000
   1346 H          33.5773   69.0724   28.8533 H         8      C_I    0.0000
   1347 H          33.3937   69.9431   30.3996 H         8      C_I    0.0000
   1348 H          32.0469   68.9352   29.7795 H         8      C_I    0.0000
   1349 H          33.9287   72.8578   36.4784 H         8      C_I    0.0000
   1350 H          35.0087   73.1179   37.8410 H         8      C_I    0.0000
   1351 H          36.1471   69.6528   36.9200 H         8      C_I    0.0000
   1352 H          35.8555   69.6992   38.6906 H         8      C_I    0.0000
   1353 H          32.6883   71.6329   38.6203 H         8      C_I    0.0000
   1354 H          34.2151   71.8089   39.5555 H         8      C_I    0.0000
   1355 H          33.4843   70.2164   39.3814 H         8      C_I    0.0000
   1356 H          37.6694   70.4461   35.4851 H         8      C_I    0.0000
   1357 H          39.0331   71.1756   36.3842 H         8      C_I    0.0000
   1358 H          38.2849   72.0516   35.0020 H         8      C_I    0.0000
   1359 H          38.7035   73.2117   37.8116 H         8      C_I    0.0000
   1360 H          37.0903   73.9432   38.0438 H         8      C_I    0.0000
   1361 H          37.9133   74.0908   36.4567 H         8      C_I    0.0000
   1362 H          30.9420   61.8853   35.5938 H         8      C_I    0.0000
   1363 H          31.3263   63.6191   35.2234 H         8      C_I    0.0000
   1364 H          27.8494   64.9694   35.2682 H         8      C_I    0.0000
   1365 H          29.5807   65.4467   35.4109 H         8      C_I    0.0000
   1366 H          28.3566   61.2741   35.5703 H         8      C_I    0.0000
   1367 H          28.0848   62.1629   34.0358 H         8      C_I    0.0000
   1368 H          27.1398   62.5956   35.4799 H         8      C_I    0.0000
   1369 H          26.5910   65.9488   31.5848 H         8      C_I    0.0000
   1370 H          26.7943   64.2428   32.3165 H         8      C_I    0.0000
   1371 H          26.8717   67.8833   33.1086 H         8      C_I    0.0000
   1372 H          28.1286   69.1209   32.9816 H         8      C_I    0.0000
   1373 H          29.0009   66.3944   30.4955 H         8      C_I    0.0000
   1374 H          30.5650   66.5375   31.3373 H         8      C_I    0.0000
   1375 H          33.6433   62.6038   31.0789 H         8      C_I    0.0000
   1376 H          34.7754   63.5684   31.9950 H         8      C_I    0.0000
   1377 H          33.3101   61.4299   34.7034 H         8      C_I    0.0000
   1378 H          33.2644   63.0951   35.3801 H         8      C_I    0.0000
   1379 H          32.0202   64.9161   33.8711 H         8      C_I    0.0000
   1380 H          32.4110   64.8523   32.1421 H         8      C_I    0.0000
   1381 H          33.7048   65.0698   33.3732 H         8      C_I    0.0000
   1382 H          30.7272   66.7672   33.7513 H         8      C_I    0.0000
   1383 H          29.4089   67.5973   34.6779 H         8      C_I    0.0000
   1384 H          30.3502   68.4701   33.4321 H         8      C_I    0.0000
   1385 H          34.9467   59.7896   34.3022 H         8      C_I    0.0000
   1386 H          36.3241   60.5046   35.2059 H         8      C_I    0.0000
   1387 H          36.5809   59.7981   33.5746 H         8      C_I    0.0000
   1388 H          37.4262   61.8166   32.3382 H         8      C_I    0.0000
   1389 H          37.6338   62.4237   34.0198 H         8      C_I    0.0000
   1390 H          36.8219   63.4414   32.8010 H         8      C_I    0.0000
   1391 H          28.0107   67.5341   28.7565 H         8      C_I    0.0000
   1392 H          28.9779   68.9679   28.2809 H         8      C_I    0.0000
   1393 H          27.2240   69.1373   28.6380 H         8      C_I    0.0000
   1394 H          29.3961   70.8288   29.9089 H         8      C_I    0.0000
   1395 H          28.9258   70.7018   31.6249 H         8      C_I    0.0000
   1396 H          27.6623   70.9409   30.3713 H         8      C_I    0.0000
   1397 S          85.5719   94.6286   17.1166 S         9      C_J    0.0000
   1398 S          84.1595   93.4652   16.0752 S         9      C_J    0.0000
   1399 C          85.5449   96.4817   16.5928 C.3       9      C_J    0.0000
   1400 C          86.3367   97.4899   17.5642 C.3       9      C_J    0.0000
   1401 O          86.1321   98.9752   17.5175 O.3       9      C_J    0.0000
   1402 C          87.2326   99.8399   17.3651 C.2       9      C_J    0.0000
   1403 O          88.2997   99.4506   16.9276 O.2       9      C_J    0.0000
   1404 C          87.0976  101.4144   17.8151 C.2       9      C_J    0.0000
   1405 C          86.2239  101.6771   19.0667 C.3       9      C_J    0.0000
   1406 C          86.8529  102.4120   16.6143 C.3       9      C_J    0.0000
   1407 C          85.5044  102.7596   15.9166 C.2       9      C_J    0.0000
   1408 C          84.8029   91.6861   15.7941 C.3       9      C_J    0.0000
   1409 C          83.7652   90.5628   15.3524 C.3       9      C_J    0.0000
   1410 O          84.3786   89.3158   14.9757 O.3       9      C_J    0.0000
   1411 C          83.6444   88.1966   14.5682 C.2       9      C_J    0.0000
   1412 C          84.4966   86.9303   14.1615 C.3       9      C_J    0.0000
   1413 O          82.4359   88.1487   14.5212 O.2       9      C_J    0.0000
   1414 C          83.8523   86.1512   12.9647 C.3       9      C_J    0.0000
   1415 C          85.9163   87.3782   13.7620 C.3       9      C_J    0.0000
   1416 C          84.5596   85.9848   15.3902 C.3       9      C_J    0.0000
   1417 O          85.1921   84.7508   15.1108 O.3       9      C_J    0.0000
   1418 O          84.8005   85.3549   12.2796 O.3       9      C_J    0.0000
   1419 C          85.3721   83.8802   16.1590 C.2       9      C_J    0.0000
   1420 C          86.0149   82.5304   15.7585 C.3       9      C_J    0.0000
   1421 O          85.0625   84.1245   17.3048 O.2       9      C_J    0.0000
   1422 C          85.4004   81.4183   16.6500 C.3       9      C_J    0.0000
   1423 C          87.5359   82.6567   16.0005 C.3       9      C_J    0.0000
   1424 C          85.7298   82.2111   14.2792 C.3       9      C_J    0.0000
   1425 O          88.1870   81.4484   15.7097 O.3       9      C_J    0.0000
   1426 O          85.8187   80.1428   16.2245 O.3       9      C_J    0.0000
   1427 C          89.5504   81.4041   15.7638 C.2       9      C_J    0.0000
   1428 C          90.0969   79.9993   15.4747 C.3       9      C_J    0.0000
   1429 O          90.2426   82.3627   16.0359 O.2       9      C_J    0.0000
   1430 C          89.2801   79.1736   14.4636 C.3       9      C_J    0.0000
   1431 O          89.8244   79.3357   13.1812 O.3       9      C_J    0.0000
   1432 C          91.1089   78.7742   13.0493 C.3       9      C_J    0.0000
   1433 O          91.8551   78.9466   14.2300 O.3       9      C_J    0.0000
   1434 C          91.5253   80.1253   14.9156 C.3       9      C_J    0.0000
   1435 C          90.1287   79.2669   16.8313 C.3       9      C_J    0.0000
   1436 C          91.8137   79.4608   11.8808 C.3       9      C_J    0.0000
   1437 C          91.0218   77.2787   12.7513 C.3       9      C_J    0.0000
   1438 C          86.1545   79.0736   17.0089 C.2       9      C_J    0.0000
   1439 C          85.7025   79.0126   18.4901 C.3       9      C_J    0.0000
   1440 O          86.7621   78.1532   16.5016 O.2       9      C_J    0.0000
   1441 C          85.9524   77.5834   19.0363 C.3       9      C_J    0.0000
   1442 O          87.3021   77.4681   19.4074 O.3       9      C_J    0.0000
   1443 C          87.6043   78.2100   20.5621 C.3       9      C_J    0.0000
   1444 O          86.7937   79.3569   20.6319 O.3       9      C_J    0.0000
   1445 C          86.5377   79.9483   19.3822 C.3       9      C_J    0.0000
   1446 C          84.1839   79.2476   18.6223 C.3       9      C_J    0.0000
   1447 C          89.0812   78.5944   20.5290 C.3       9      C_J    0.0000
   1448 C          87.3537   77.3687   21.8129 C.3       9      C_J    0.0000
   1449 C          84.4248   84.5832   11.2087 C.2       9      C_J    0.0000
   1450 C          85.6270   84.0106   10.4078 C.3       9      C_J    0.0000
   1451 O          83.2733   84.3872   10.8845 O.2       9      C_J    0.0000
   1452 C          86.9777   84.4870   10.9846 C.3       9      C_J    0.0000
   1453 C          85.5121   82.4627   10.4094 C.3       9      C_J    0.0000
   1454 C          85.4759   84.5278    8.9585 C.3       9      C_J    0.0000
   1455 O          86.6220   81.8717    9.7743 O.3       9      C_J    0.0000
   1456 O          88.0446   84.2260   10.1031 O.3       9      C_J    0.0000
   1457 C          86.4646   80.6048    9.2650 C.2       9      C_J    0.0000
   1458 C          86.3511   80.4580    7.9285 C.2       9      C_J    0.0000
   1459 C          86.7246   79.3560   10.1224 C.3       9      C_J    0.0000
   1460 C          89.3732   84.1601   10.4239 C.2       9      C_J    0.0000
   1461 C          89.7970   83.9547   11.8989 C.3       9      C_J    0.0000
   1462 O          90.1918   84.1876    9.5302 O.2       9      C_J    0.0000
   1463 C          85.8609   78.1436    9.7213 C.3       9      C_J    0.0000
   1464 O          86.5762   77.2942    8.8600 O.3       9      C_J    0.0000
   1465 C          87.7106   76.7132    9.4586 C.3       9      C_J    0.0000
   1466 O          88.3573   77.6194   10.3181 O.3       9      C_J    0.0000
   1467 C          88.1963   78.9568    9.9264 C.3       9      C_J    0.0000
   1468 C          91.3429   83.9383   12.0450 C.3       9      C_J    0.0000
   1469 O          91.8055   85.2398   12.2913 O.3       9      C_J    0.0000
   1470 C          91.4461   85.7017   13.5704 C.3       9      C_J    0.0000
   1471 O          90.1721   85.2221   13.9201 O.3       9      C_J    0.0000
   1472 C          89.3074   85.0809   12.8254 C.3       9      C_J    0.0000
   1473 C          89.3451   82.5444   12.3313 C.3       9      C_J    0.0000
   1474 C          86.4794   79.6130   11.6237 C.3       9      C_J    0.0000
   1475 C          91.4486   87.2290   13.5517 C.3       9      C_J    0.0000
   1476 C          92.4372   85.2166   14.6268 C.3       9      C_J    0.0000
   1477 C          88.6665   76.2857    8.3458 C.3       9      C_J    0.0000
   1478 C          87.3252   75.4744   10.2652 C.3       9      C_J    0.0000
   1479 H          86.0434   96.5353   15.5998 H         9      C_J    0.0000
   1480 H          84.4915   96.8092   16.4581 H         9      C_J    0.0000
   1481 H          85.9772   97.2251   18.5874 H         9      C_J    0.0000
   1482 H          87.4194   97.2244   17.5198 H         9      C_J    0.0000
   1483 H          86.1201  102.7748   19.2976 H         9      C_J    0.0000
   1484 H          85.2122  101.2521   18.9858 H         9      C_J    0.0000
   1485 H          86.7124  101.2490   19.9780 H         9      C_J    0.0000
   1486 H          87.1186  103.4569   16.9660 H         9      C_J    0.0000
   1487 H          87.5922  102.2522   15.7947 H         9      C_J    0.0000
   1488 H          84.7068  102.2282   16.4598 H         9      C_J    0.0000
   1489 H          85.2810  103.8584   16.0369 H         9      C_J    0.0000
   1490 H          85.5767   91.7193   14.9914 H         9      C_J    0.0000
   1491 H          85.2964   91.3008   16.7189 H         9      C_J    0.0000
   1492 H          83.0542   90.3482   16.1842 H         9      C_J    0.0000
   1493 H          83.1723   90.9150   14.4778 H         9      C_J    0.0000
   1494 H          83.4413   86.8769   12.2259 H         9      C_J    0.0000
   1495 H          83.0204   85.4995   13.3177 H         9      C_J    0.0000
   1496 H          85.8802   88.0244   12.8557 H         9      C_J    0.0000
   1497 H          86.4258   87.9358   14.5772 H         9      C_J    0.0000
   1498 H          86.5761   86.5130   13.5343 H         9      C_J    0.0000
   1499 H          85.1115   86.4986   16.2093 H         9      C_J    0.0000
   1500 H          83.5236   85.7614   15.7393 H         9      C_J    0.0000
   1501 H          84.2921   81.4621   16.5588 H         9      C_J    0.0000
   1502 H          85.7060   81.5932   17.6955 H         9      C_J    0.0000
   1503 H          87.9473   83.4604   15.3469 H         9      C_J    0.0000
   1504 H          87.7345   82.9168   17.0666 H         9      C_J    0.0000
   1505 H          84.6376   82.1739   14.0678 H         9      C_J    0.0000
   1506 H          86.1894   82.9665   13.6088 H         9      C_J    0.0000
   1507 H          86.1562   81.2289   13.9825 H         9      C_J    0.0000
   1508 H          88.2112   79.4681   14.4121 H         9      C_J    0.0000
   1509 H          89.2749   78.0924   14.7187 H         9      C_J    0.0000
   1510 H          91.6388   80.9894   14.2248 H         9      C_J    0.0000
   1511 H          92.2691   80.2638   15.7327 H         9      C_J    0.0000
   1512 H          90.7007   79.8418   17.5944 H         9      C_J    0.0000
   1513 H          89.1002   79.1153   17.2263 H         9      C_J    0.0000
   1514 H          90.6068   78.2648   16.7470 H         9      C_J    0.0000
   1515 H          91.8968   80.5613   12.0195 H         9      C_J    0.0000
   1516 H          92.8473   79.0689   11.7447 H         9      C_J    0.0000
   1517 H          91.2641   79.2939   10.9268 H         9      C_J    0.0000
   1518 H          92.0345   76.8483   12.5778 H         9      C_J    0.0000
   1519 H          90.5700   76.6981   13.5855 H         9      C_J    0.0000
   1520 H          90.4152   77.0787   11.8404 H         9      C_J    0.0000
   1521 H          85.7152   76.7915   18.2926 H         9      C_J    0.0000
   1522 H          85.3176   77.3392   19.9152 H         9      C_J    0.0000
   1523 H          87.4994   80.2314   18.9024 H         9      C_J    0.0000
   1524 H          85.9858   80.8870   19.6105 H         9      C_J    0.0000
   1525 H          83.6165   78.5554   17.9596 H         9      C_J    0.0000
   1526 H          83.8367   79.0793   19.6666 H         9      C_J    0.0000
   1527 H          83.8674   80.2814   18.3804 H         9      C_J    0.0000
   1528 H          89.3450   79.2023   19.6374 H         9      C_J    0.0000
   1529 H          89.3650   79.1900   21.4262 H         9      C_J    0.0000
   1530 H          89.7292   77.6885   20.5039 H         9      C_J    0.0000
   1531 H          87.6349   77.9293   22.7335 H         9      C_J    0.0000
   1532 H          86.2854   77.0800   21.9279 H         9      C_J    0.0000
   1533 H          87.9515   76.4288   21.7947 H         9      C_J    0.0000
   1534 H          86.9763   85.5884   11.1425 H         9      C_J    0.0000
   1535 H          87.1025   83.9657   11.9438 H         9      C_J    0.0000
   1536 H          84.5848   82.1425    9.8820 H         9      C_J    0.0000
   1537 H          85.4562   82.1012   11.4582 H         9      C_J    0.0000
   1538 H          85.5107   85.6404    8.9271 H         9      C_J    0.0000
   1539 H          86.2842   84.1513    8.2922 H         9      C_J    0.0000
   1540 H          84.5173   84.2048    8.4942 H         9      C_J    0.0000
   1541 H          86.3218   79.4789    7.4329 H         9      C_J    0.0000
   1542 H          86.2882   81.3391    7.2730 H         9      C_J    0.0000
   1543 H          84.9252   78.4623    9.2104 H         9      C_J    0.0000
   1544 H          85.5289   77.5447   10.5964 H         9      C_J    0.0000
   1545 H          88.5445   79.0692    8.8766 H         9      C_J    0.0000
   1546 H          88.8651   79.5896   10.5505 H         9      C_J    0.0000
   1547 H          91.8747   83.5382   11.1565 H         9      C_J    0.0000
   1548 H          91.6839   83.2818   12.8739 H         9      C_J    0.0000
   1549 H          89.2277   86.0539   12.2926 H         9      C_J    0.0000
   1550 H          88.3190   84.8563   13.2789 H         9      C_J    0.0000
   1551 H          88.2536   82.3714   12.2981 H         9      C_J    0.0000
   1552 H          89.8023   81.7672   11.6795 H         9      C_J    0.0000
   1553 H          89.6464   82.3366   13.3790 H         9      C_J    0.0000
   1554 H          87.1148   80.4397   12.0066 H         9      C_J    0.0000
   1555 H          85.4103   79.8522   11.8209 H         9      C_J    0.0000
   1556 H          86.7326   78.7249   12.2457 H         9      C_J    0.0000
   1557 H          90.9228   87.6415   12.6615 H         9      C_J    0.0000
   1558 H          90.9513   87.6466   14.4571 H         9      C_J    0.0000
   1559 H          92.4880   87.6287   13.5276 H         9      C_J    0.0000
   1560 H          93.4849   85.4720   14.3477 H         9      C_J    0.0000
   1561 H          92.2242   85.6856   15.6143 H         9      C_J    0.0000
   1562 H          92.3945   84.1160   14.7852 H         9      C_J    0.0000
   1563 H          88.9635   77.1378    7.6944 H         9      C_J    0.0000
   1564 H          89.6013   75.8446    8.7614 H         9      C_J    0.0000
   1565 H          88.1972   75.5204    7.6864 H         9      C_J    0.0000
   1566 H          88.2299   74.9631   10.6668 H         9      C_J    0.0000
   1567 H          86.6840   75.7160   11.1415 H         9      C_J    0.0000
   1568 H          86.7728   74.7380    9.6379 H         9      C_J    0.0000
   1569 S          69.2936    4.8618    2.3627 S        10      C_K    0.0000
   1570 S          70.8244    6.2813    2.0904 S        10      C_K    0.0000
   1571 C          68.0016    4.8735    0.9345 C.3      10      C_K    0.0000
   1572 C          67.0068    3.6105    0.8872 C.3      10      C_K    0.0000
   1573 O          66.1930    3.2756   -0.3276 O.3      10      C_K    0.0000
   1574 C          64.7992    3.1067   -0.2251 C.2      10      C_K    0.0000
   1575 O          64.1661    3.5482    0.7161 O.2      10      C_K    0.0000
   1576 C          63.9948    2.2654   -1.3849 C.2      10      C_K    0.0000
   1577 C          64.7603    1.0604   -1.9857 C.3      10      C_K    0.0000
   1578 C          63.2501    3.1722   -2.4431 C.3      10      C_K    0.0000
   1579 C          63.8470    3.8542   -3.7100 C.2      10      C_K    0.0000
   1580 C          71.4286    6.9755    3.7671 C.3      10      C_K    0.0000
   1581 C          72.8020    7.7793    3.8071 C.3      10      C_K    0.0000
   1582 O          73.0644    8.4259    5.0665 O.3      10      C_K    0.0000
   1583 C          74.2216    9.1723    5.3147 C.2      10      C_K    0.0000
   1584 C          74.3148    9.8344    6.7457 C.3      10      C_K    0.0000
   1585 O          75.1237    9.3236    4.5219 O.2      10      C_K    0.0000
   1586 C          75.0017   11.2416    6.6957 C.3      10      C_K    0.0000
   1587 C          72.8967    9.9893    7.3292 C.3      10      C_K    0.0000
   1588 C          75.1655    8.9009    7.6472 C.3      10      C_K    0.0000
   1589 O          75.4286    9.4492    8.9243 O.3      10      C_K    0.0000
   1590 O          74.6579   12.0387    7.8132 O.3      10      C_K    0.0000
   1591 C          76.1030    8.6600    9.8252 C.2      10      C_K    0.0000
   1592 C          76.4043    9.3547   11.1751 C.3      10      C_K    0.0000
   1593 O          76.4434    7.5181    9.6053 O.2      10      C_K    0.0000
   1594 C          77.7766    8.8418   11.6877 C.3      10      C_K    0.0000
   1595 C          75.2699    8.9711   12.1518 C.3      10      C_K    0.0000
   1596 C          76.4674   10.8831   10.9969 C.3      10      C_K    0.0000
   1597 O          75.5002    9.5220   13.4214 O.3      10      C_K    0.0000
   1598 O          78.1881    9.5581   12.8281 O.3      10      C_K    0.0000
   1599 C          74.5458    9.3765   14.3867 C.2      10      C_K    0.0000
   1600 C          74.9790    9.9861   15.7270 C.3      10      C_K    0.0000
   1601 O          73.4903    8.8062   14.2060 O.2      10      C_K    0.0000
   1602 C          75.8657   11.2406   15.6203 C.3      10      C_K    0.0000
   1603 O          75.0611   12.3875   15.6872 O.3      10      C_K    0.0000
   1604 C          74.4519   12.5646   16.9442 C.3      10      C_K    0.0000
   1605 O          74.0757   11.3266   17.4979 O.3      10      C_K    0.0000
   1606 C          73.7230   10.3794   16.5249 C.3      10      C_K    0.0000
   1607 C          75.7460    8.8754   16.4724 C.3      10      C_K    0.0000
   1608 C          73.2209   13.4499   16.7591 C.3      10      C_K    0.0000
   1609 C          75.4037   13.2559   17.9184 C.3      10      C_K    0.0000
   1610 C          78.8138    9.0634   13.9394 C.2      10      C_K    0.0000
   1611 C          79.5332    7.6914   13.8912 C.3      10      C_K    0.0000
   1612 O          78.8402    9.7489   14.9408 O.2      10      C_K    0.0000
   1613 C          80.3960    7.5280   15.1688 C.3      10      C_K    0.0000
   1614 O          79.5721    7.0979   16.2218 O.3      10      C_K    0.0000
   1615 C          79.1489    5.7675   16.0603 C.3      10      C_K    0.0000
   1616 O          79.0221    5.4576   14.6946 O.3      10      C_K    0.0000
   1617 C          78.5344    6.5205   13.9140 C.3      10      C_K    0.0000
   1618 C          80.5227    7.6191   12.7103 C.3      10      C_K    0.0000
   1619 C          77.8162    5.5828   16.7815 C.3      10      C_K    0.0000
   1620 C          80.1668    4.8092   16.6771 C.3      10      C_K    0.0000
   1621 C          75.1737   13.3021    7.9585 C.2      10      C_K    0.0000
   1622 C          74.4736   14.1312    9.0707 C.3      10      C_K    0.0000
   1623 O          76.0635   13.7548    7.2708 O.2      10      C_K    0.0000
   1624 C          73.3183   13.3459    9.7283 C.3      10      C_K    0.0000
   1625 C          75.5501   14.5509   10.1071 C.3      10      C_K    0.0000
   1626 C          73.9097   15.3977    8.3857 C.3      10      C_K    0.0000
   1627 O          74.9683   15.2327   11.1939 O.3      10      C_K    0.0000
   1628 O          72.4982   14.1798   10.5126 O.3      10      C_K    0.0000
   1629 C          75.7749   16.0717   11.9252 C.2      10      C_K    0.0000
   1630 C          75.6360   17.4036   11.7601 C.2      10      C_K    0.0000
   1631 C          76.5883   15.5604   13.1249 C.3      10      C_K    0.0000
   1632 C          71.6462   13.7865   11.5085 C.2      10      C_K    0.0000
   1633 C          71.8170   12.3914   12.1578 C.3      10      C_K    0.0000
   1634 O          70.8194   14.5746   11.9149 O.2      10      C_K    0.0000
   1635 C          77.9014   16.3354   13.3531 C.3      10      C_K    0.0000
   1636 O          77.7199   17.3340   14.3252 O.3      10      C_K    0.0000
   1637 C          77.4056   16.8259   15.6003 C.3      10      C_K    0.0000
   1638 O          76.5556   15.7088   15.5116 O.3      10      C_K    0.0000
   1639 C          75.7233   15.7414   14.3829 C.3      10      C_K    0.0000
   1640 C          70.7333   12.1359   13.2403 C.3      10      C_K    0.0000
   1641 O          69.6194   11.5169   12.6532 O.3      10      C_K    0.0000
   1642 C          69.8882   10.1927   12.2622 C.3      10      C_K    0.0000
   1643 O          71.2086   10.0829   11.7932 O.3      10      C_K    0.0000
   1644 C          71.6716   11.2391   11.1491 C.3      10      C_K    0.0000
   1645 C          73.1533   12.3864   12.9289 C.3      10      C_K    0.0000
   1646 C          76.9576   14.0685   12.9911 C.3      10      C_K    0.0000
   1647 C          68.9029    9.8036   11.1617 C.3      10      C_K    0.0000
   1648 C          69.7252    9.2304   13.4372 C.3      10      C_K    0.0000
   1649 C          76.7184   17.9350   16.3957 C.3      10      C_K    0.0000
   1650 C          78.6717   16.4106   16.3473 C.3      10      C_K    0.0000
   1651 H          67.3684    5.7747    1.0904 H        10      C_K    0.0000
   1652 H          68.5290    4.9971   -0.0359 H        10      C_K    0.0000
   1653 H          67.6810    2.7258    0.9820 H        10      C_K    0.0000
   1654 H          66.3759    3.6402    1.8068 H        10      C_K    0.0000
   1655 H          64.1870    0.5542   -2.8128 H        10      C_K    0.0000
   1656 H          65.7523    1.3295   -2.3782 H        10      C_K    0.0000
   1657 H          64.8934    0.2611   -1.2138 H        10      C_K    0.0000
   1658 H          62.4694    2.5355   -2.9640 H        10      C_K    0.0000
   1659 H          62.6189    3.9451   -1.9451 H        10      C_K    0.0000
   1660 H          64.8985    3.5354   -3.7902 H        10      C_K    0.0000
   1661 H          63.3342    3.4633   -4.6352 H        10      C_K    0.0000
   1662 H          70.6525    7.6781    4.1520 H        10      C_K    0.0000
   1663 H          71.5339    6.1515    4.5134 H        10      C_K    0.0000
   1664 H          73.6554    7.0922    3.5995 H        10      C_K    0.0000
   1665 H          72.8024    8.5716    3.0243 H        10      C_K    0.0000
   1666 H          74.6621   11.7899    5.7872 H        10      C_K    0.0000
   1667 H          76.1105   11.1403    6.6512 H        10      C_K    0.0000
   1668 H          72.2945   10.6908    6.7082 H        10      C_K    0.0000
   1669 H          72.3599    9.0182    7.3919 H        10      C_K    0.0000
   1670 H          72.9156   10.3875    8.3669 H        10      C_K    0.0000
   1671 H          74.6268    7.9344    7.7708 H        10      C_K    0.0000
   1672 H          76.1477    8.7051    7.1554 H        10      C_K    0.0000
   1673 H          78.5362    9.0035   10.8906 H        10      C_K    0.0000
   1674 H          77.6885    7.7672   11.9208 H        10      C_K    0.0000
   1675 H          74.2998    9.3532   11.7578 H        10      C_K    0.0000
   1676 H          75.2101    7.8622   12.2539 H        10      C_K    0.0000
   1677 H          77.2387   11.1805   10.2516 H        10      C_K    0.0000
   1678 H          75.4890   11.2905   10.6680 H        10      C_K    0.0000
   1679 H          76.7154   11.3968   11.9504 H        10      C_K    0.0000
   1680 H          76.4452   11.2943   14.6752 H        10      C_K    0.0000
   1681 H          76.6228   11.2839   16.4321 H        10      C_K    0.0000
   1682 H          72.9229   10.8042   15.8799 H        10      C_K    0.0000
   1683 H          73.2843    9.5000   17.0486 H        10      C_K    0.0000
   1684 H          75.1402    7.9449   16.5576 H        10      C_K    0.0000
   1685 H          76.6876    8.6158   15.9406 H        10      C_K    0.0000
   1686 H          76.0193    9.1863   17.5061 H        10      C_K    0.0000
   1687 H          72.4875   13.0171   16.0435 H        10      C_K    0.0000
   1688 H          72.6852   13.6051   17.7231 H        10      C_K    0.0000
   1689 H          73.5037   14.4534   16.3678 H        10      C_K    0.0000
   1690 H          74.8991   13.4590   18.8905 H        10      C_K    0.0000
   1691 H          76.3030   12.6440   18.1505 H        10      C_K    0.0000
   1692 H          75.7595   14.2312   17.5186 H        10      C_K    0.0000
   1693 H          80.9010    8.4717   15.4699 H        10      C_K    0.0000
   1694 H          81.2238    6.7977   15.0410 H        10      C_K    0.0000
   1695 H          77.5373    6.8318   14.2934 H        10      C_K    0.0000
   1696 H          78.3896    6.0938   12.8966 H        10      C_K    0.0000
   1697 H          81.2241    8.4840   12.7273 H        10      C_K    0.0000
   1698 H          81.1310    6.6874   12.7472 H        10      C_K    0.0000
   1699 H          80.0339    7.6006   11.7162 H        10      C_K    0.0000
   1700 H          77.0231    6.2571   16.3936 H        10      C_K    0.0000
   1701 H          77.4393    4.5402   16.6754 H        10      C_K    0.0000
   1702 H          77.9178    5.7981   17.8697 H        10      C_K    0.0000
   1703 H          79.8198    3.7537   16.5979 H        10      C_K    0.0000
   1704 H          81.1592    4.8581   16.1764 H        10      C_K    0.0000
   1705 H          80.3285    5.0308   17.7569 H        10      C_K    0.0000
   1706 H          72.6506   12.9009    8.9574 H        10      C_K    0.0000
   1707 H          73.7881   12.5535   10.3273 H        10      C_K    0.0000
   1708 H          76.3078   15.2145    9.6317 H        10      C_K    0.0000
   1709 H          76.0706   13.6438   10.4814 H        10      C_K    0.0000
   1710 H          73.1637   15.1288    7.6039 H        10      C_K    0.0000
   1711 H          73.4033   16.0756    9.1088 H        10      C_K    0.0000
   1712 H          74.7070   16.0038    7.9001 H        10      C_K    0.0000
   1713 H          76.1679   18.1428   12.3731 H        10      C_K    0.0000
   1714 H          74.9621   17.8036   10.9881 H        10      C_K    0.0000
   1715 H          78.2595   16.8138   12.4144 H        10      C_K    0.0000
   1716 H          78.7346   15.6798   13.6857 H        10      C_K    0.0000
   1717 H          75.1488   16.6931   14.3862 H        10      C_K    0.0000
   1718 H          74.9769   14.9216   14.4718 H        10      C_K    0.0000
   1719 H          70.3913   13.0550   13.7605 H        10      C_K    0.0000
   1720 H          71.1011   11.4881   14.0645 H        10      C_K    0.0000
   1721 H          70.9802   11.4980   10.3174 H        10      C_K    0.0000
   1722 H          72.6446   10.9395   10.7055 H        10      C_K    0.0000
   1723 H          74.0534   12.5488   12.3077 H        10      C_K    0.0000
   1724 H          73.1635   13.1844   13.7042 H        10      C_K    0.0000
   1725 H          73.3142   11.4119   13.4349 H        10      C_K    0.0000
   1726 H          76.0542   13.4313   12.8828 H        10      C_K    0.0000
   1727 H          77.6316   13.8979   12.1217 H        10      C_K    0.0000
   1728 H          77.4891   13.6879   13.8924 H        10      C_K    0.0000
   1729 H          68.8119   10.5896   10.3788 H        10      C_K    0.0000
   1730 H          69.2125    8.8610   10.6548 H        10      C_K    0.0000
   1731 H          67.8820    9.6401   11.5761 H        10      C_K    0.0000
   1732 H          68.7305    9.3495   13.9241 H        10      C_K    0.0000
   1733 H          69.8136    8.1731   13.0982 H        10      C_K    0.0000
   1734 H          70.4993    9.3747   14.2235 H        10      C_K    0.0000
   1735 H          75.8014   18.3110   15.8895 H        10      C_K    0.0000
   1736 H          76.4169   17.5810   17.4080 H        10      C_K    0.0000
   1737 H          77.3959   18.8087   16.5323 H        10      C_K    0.0000
   1738 H          78.4339   16.0912   17.3878 H        10      C_K    0.0000
   1739 H          79.1923   15.5539   15.8652 H        10      C_K    0.0000
   1740 H          79.3988   17.2522   16.4115 H        10      C_K    0.0000
   1741 C          20.1208   39.3623   35.4486 C.ar     11      C_L    0.0000
   1742 C          21.1882   39.2808   36.2718 C.ar     11      C_L    0.0000
   1743 C          22.3725   39.8237   35.9460 C.ar     11      C_L    0.0000
   1744 C          22.5242   40.4676   34.7808 C.ar     11      C_L    0.0000
   1745 C          21.4786   40.5608   33.9483 C.ar     11      C_L    0.0000
   1746 C          20.2975   40.0153   34.2811 C.ar     11      C_L    0.0000
   1747 C          18.9082   38.8148   35.7659 C.2      11      C_L    0.0000
   1748 S          17.4448   38.9089   34.6736 S        11      C_L    0.0000
   1749 S          18.6313   38.0353   37.1172 S        11      C_L    0.0000
   1750 H          21.1506   38.7700   37.2476 H        11      C_L    0.0000
   1751 H          23.2285   39.7421   36.6377 H        11      C_L    0.0000
   1752 H          23.4955   40.9142   34.5110 H        11      C_L    0.0000
   1753 H          21.5937   41.0890   32.9864 H        11      C_L    0.0000
   1754 H          19.4889   40.1356   33.5429 H        11      C_L    0.0000
   1755 C          71.4258   29.1795   33.9348 C.2      12      M_A    0.0000
   1756 C          72.2017   29.4990   34.7072 C.3      12      M_A    0.0000
   1757 C          71.6957   29.8282   35.6705 C.2      12      M_A    0.0000
   1758 O          71.8127   30.6156   36.1128 O.2      12      M_A    0.0000
   1759 O          71.1097   29.0691   36.0260 O.3      12      M_A    0.0000
   1760 C          70.5991   29.3042   36.9300 C.3      12      M_A    0.0000
   1761 H          70.7094   29.5325   34.1051 H        12      M_A    0.0000
   1762 H          71.6424   29.4658   33.2015 H        12      M_A    0.0000
   1763 H          72.6313   28.8327   34.9103 H        12      M_A    0.0000
   1764 H          70.1366   28.6660   37.1299 H        12      M_A    0.0000
   1765 H          70.1153   29.9502   36.8249 H        12      M_A    0.0000
   1766 H          71.1324   29.4350   37.5306 H        12      M_A    0.0000
   1767 C          73.0096   30.2478   34.2815 C.3      13      M_A    0.0000
   1768 C          74.0156   30.2765   34.8181 C.3      13      M_A    0.0000
   1769 C          73.9497   29.7453   35.8209 C.2      13      M_A    0.0000
   1770 O          74.1854   30.0761   36.6360 O.2      13      M_A    0.0000
   1771 O          73.6332   28.7832   35.6784 O.3      13      M_A    0.0000
   1772 C          73.5449   28.2196   36.5771 C.3      13      M_A    0.0000
   1773 H          72.6822   30.9957   34.2746 H        13      M_A    0.0000
   1774 H          73.1284   30.0532   33.4975 H        13      M_A    0.0000
   1775 H          74.5400   29.8305   34.3757 H        13      M_A    0.0000
   1776 H          73.2633   27.4818   36.3836 H        13      M_A    0.0000
   1777 H          73.0154   28.5725   37.0846 H        13      M_A    0.0000
   1778 H          74.2730   28.1338   36.9302 H        13      M_A    0.0000
   1779 C          74.5024   31.3521   34.8491 C.3      14      M_A    0.0000
   1780 C          75.4506   31.4683   35.4720 C.3      14      M_A    0.0000
   1781 C          76.1040   30.5423   35.3830 C.2      14      M_A    0.0000
   1782 O          76.4405   30.0383   36.0628 O.2      14      M_A    0.0000
   1783 O          76.3256   30.3731   34.3989 O.3      14      M_A    0.0000
   1784 C          76.9363   29.5170   34.2344 C.3      14      M_A    0.0000
   1785 H          73.9362   31.8782   35.1126 H        14      M_A    0.0000
   1786 H          74.6594   31.5674   34.0773 H        14      M_A    0.0000
   1787 H          75.8901   32.0712   35.1358 H        14      M_A    0.0000
   1788 H          77.0426   29.4353   33.4324 H        14      M_A    0.0000
   1789 H          76.5700   28.8467   34.5154 H        14      M_A    0.0000
   1790 H          77.6649   29.6178   34.5826 H        14      M_A    0.0000
   1791 C          75.2472   31.8368   36.5755 C.3      15      M_A    0.0000
   1792 C          76.1554   32.1640   37.1827 C.3      15      M_A    0.0000
   1793 C          77.1170   31.8326   36.6749 C.2      15      M_A    0.0000
   1794 O          77.7969   31.3517   37.0434 O.2      15      M_A    0.0000
   1795 O          77.1504   32.2108   35.7253 O.3      15      M_A    0.0000
   1796 C          78.0256   31.9406   35.1830 C.3      15      M_A    0.0000
   1797 H          74.8534   31.2416   36.9721 H        15      M_A    0.0000
   1798 H          74.7176   32.4565   36.5283 H        15      M_A    0.0000
   1799 H          76.1775   32.9818   37.1657 H        15      M_A    0.0000
   1800 H          77.9635   32.2533   34.4350 H        15      M_A    0.0000
   1801 H          78.0839   31.1312   35.1199 H        15      M_A    0.0000
   1802 H          78.6872   32.2528   35.5394 H        15      M_A    0.0000
   1803 C          76.0749   31.8987   38.3307 C.3      16      M_A    0.0000
   1804 C          76.9551   32.2010   38.9900 C.3      16      M_A    0.0000
   1805 C          77.9301   32.1405   38.4086 C.2      16      M_A    0.0000
   1806 O          78.6851   31.6894   38.6449 O.2      16      M_A    0.0000
   1807 O          77.8698   32.7325   37.5768 O.3      16      M_A    0.0000
   1808 C          78.7494   32.7265   36.9773 C.3      16      M_A    0.0000
   1809 H          75.9481   31.0948   38.3960 H        16      M_A    0.0000
   1810 H          75.3945   32.2516   38.6120 H        16      M_A    0.0000
   1811 H          76.8637   32.9943   39.1690 H        16      M_A    0.0000
   1812 H          78.6124   33.1942   36.3265 H        16      M_A    0.0000
   1813 H          78.9157   31.9718   36.7219 H        16      M_A    0.0000
   1814 H          79.3767   33.0379   37.3918 H        16      M_A    0.0000
   1815 C          76.9620   31.6641   40.0419 C.3      17      M_A    0.0000
   1816 C          77.8457   31.8889   40.7269 C.3      17      M_A    0.0000
   1817 C          77.7065   32.8917   41.2439 C.2      17      M_A    0.0000
   1818 O          78.2914   33.5896   41.2588 O.2      17      M_A    0.0000
   1819 O          76.8259   32.8892   41.7641 O.3      17      M_A    0.0000
   1820 C          76.6239   33.8002   42.2763 C.3      17      M_A    0.0000
   1821 H          76.9125   30.8591   39.9151 H        17      M_A    0.0000
   1822 H          76.2686   31.8693   40.4212 H        17      M_A    0.0000
   1823 H          77.8329   31.3358   41.3298 H        17      M_A    0.0000
   1824 H          75.8994   33.7288   42.6385 H        17      M_A    0.0000
   1825 H          76.5895   34.4214   41.7515 H        17      M_A    0.0000
   1826 H          77.1867   33.9340   42.8487 H        17      M_A    0.0000
   1827 C          78.8953   31.7309   40.2090 C.3      18      M_A    0.0000
   1828 C          79.5528   30.8974   40.6258 C.3      18      M_A    0.0000
   1829 C          79.2379   29.8900   40.2036 C.2      18      M_A    0.0000
   1830 O          79.0277   29.1379   40.6721 O.2      18      M_A    0.0000
   1831 O          79.2796   29.9190   39.1821 O.3      18      M_A    0.0000
   1832 C          78.9956   29.0072   38.7119 C.3      18      M_A    0.0000
   1833 H          79.3006   32.4390   40.2380 H        18      M_A    0.0000
   1834 H          78.7540   31.5914   39.4169 H        18      M_A    0.0000
   1835 H          80.3101   31.0196   40.3409 H        18      M_A    0.0000
   1836 H          79.0274   29.1196   37.9072 H        18      M_A    0.0000
   1837 H          78.2331   28.8070   38.9142 H        18      M_A    0.0000
   1838 H          79.5146   28.4126   38.9103 H        18      M_A    0.0000
   1839 C          79.6738   30.9356   41.8000 C.3      19      M_A    0.0000
   1840 C          80.4630   30.2507   42.2569 C.3      19      M_A    0.0000
   1841 C          80.0448   29.2048   42.4105 C.2      19      M_A    0.0000
   1842 O          80.0441   28.7196   43.1812 O.2      19      M_A    0.0000
   1843 O          79.7068   28.8369   41.5180 O.3      19      M_A    0.0000
   1844 C          79.2969   27.8567   41.5820 C.3      19      M_A    0.0000
   1845 H          78.9464   30.7754   42.1344 H        19      M_A    0.0000
   1846 H          79.8412   31.7095   41.9995 H        19      M_A    0.0000
   1847 H          81.0583   30.1619   41.7026 H        19      M_A    0.0000
   1848 H          79.0270   27.6492   40.8435 H        19      M_A    0.0000
   1849 H          78.6686   27.8431   42.0992 H        19      M_A    0.0000
   1850 H          79.8699   27.3242   41.8066 H        19      M_A    0.0000
   1851 C          81.0064   30.7184   43.1954 C.3      20      M_A    0.0000
   1852 C          81.6055   30.0028   43.8508 C.3      20      M_A    0.0000
   1853 C          81.9651   30.5283   44.7925 C.2      20      M_A    0.0000
   1854 O          82.8190   30.5743   45.1056 O.2      20      M_A    0.0000
   1855 O          81.1628   30.9106   45.2987 O.3      20      M_A    0.0000
   1856 C          81.4213   31.4217   46.1959 C.3      20      M_A    0.0000
   1857 H          80.4443   31.0989   43.6492 H        20      M_A    0.0000
   1858 H          81.5000   31.3071   42.9188 H        20      M_A    0.0000
   1859 H          81.0897   29.4247   44.1142 H        20      M_A    0.0000
   1860 H          80.7377   31.7180   46.5214 H        20      M_A    0.0000
   1861 H          81.9214   32.0437   46.0362 H        20      M_A    0.0000
   1862 H          81.7587   30.9067   46.7280 H        20      M_A    0.0000
   1863 C          82.4352   29.4053   43.2597 C.3      21      M_A    0.0000
   1864 C          83.5098   29.5245   43.6224 C.3      21      M_A    0.0000
   1865 C          83.7030   28.8624   44.5261 C.2      21      M_A    0.0000
   1866 O          84.0386   29.1168   45.3336 O.2      21      M_A    0.0000
   1867 O          83.4984   27.8892   44.2873 O.3      21      M_A    0.0000
   1868 C          83.6549   27.2056   45.0881 C.3      21      M_A    0.0000
   1869 H          82.3873   29.6178   42.4728 H        21      M_A    0.0000
   1870 H          82.2282   28.6159   43.2865 H        21      M_A    0.0000
   1871 H          83.9986   29.2305   43.0357 H        21      M_A    0.0000
   1872 H          83.4446   26.4640   44.8293 H        21      M_A    0.0000
   1873 H          83.1857   27.3990   45.7245 H        21      M_A    0.0000
   1874 H          84.4406   27.1922   45.2996 H        21      M_A    0.0000
   1875 C          83.8442   30.6508   43.7427 C.3      22      M_A    0.0000
   1876 C          84.6001   31.0452   42.9853 C.2      22      M_A    0.0000
   1877 C          84.2130   30.9087   41.9252 C.2      22      M_A    0.0000
   1878 O          84.6380   30.4978   41.2324 O.2      22      M_A    0.0000
   1879 O          83.3103   31.3793   41.8272 O.3      22      M_A    0.0000
   1880 C          82.8814   31.2938   40.8567 C.3      22      M_A    0.0000
   1881 H          84.1384   30.7477   44.4982 H        22      M_A    0.0000
   1882 H          83.1679   31.1072   43.7106 H        22      M_A    0.0000
   1883 H          84.6496   31.8552   43.0904 H        22      M_A    0.0000
   1884 H          82.1586   31.6662   40.8684 H        22      M_A    0.0000
   1885 H          82.7652   30.5117   40.6638 H        22      M_A    0.0000
   1886 H          83.3529   31.6623   40.3053 H        22      M_A    0.0000
   1887 C          88.3797   31.2210   40.8018 C.2      23      M_A    0.0000
   1888 C          88.0456   29.7803   41.2076 C.3      23      M_A    0.0000
   1889 C          89.2014   29.1604   41.9930 C.2      23      M_A    0.0000
   1890 O          89.7734   28.1033   41.7584 O.2      23      M_A    0.0000
   1891 O          89.4782   29.9367   43.0941 O.3      23      M_A    0.0000
   1892 C          90.5527   29.4409   43.8994 C.3      23      M_A    0.0000
   1893 H          88.9276   31.2171   39.8504 H        23      M_A    0.0000
   1894 H          87.4477   31.7663   40.6030 H        23      M_A    0.0000
   1895 H          87.2088   29.8270   41.9207 H        23      M_A    0.0000
   1896 H          90.7133   30.1469   44.7188 H        23      M_A    0.0000
   1897 H          91.4742   29.3760   43.3124 H        23      M_A    0.0000
   1898 H          90.2913   28.4676   44.3257 H        23      M_A    0.0000
   1899 C          87.4904   28.8974   40.0099 C.3      24      M_A    0.0000
   1900 C          88.4140   27.7931   39.4811 C.3      24      M_A    0.0000
   1901 C          89.8367   27.9835   40.0070 C.2      24      M_A    0.0000
   1902 O          90.8680   28.0411   39.3490 O.2      24      M_A    0.0000
   1903 O          89.8203   28.0032   41.3821 O.3      24      M_A    0.0000
   1904 C          91.1105   28.1801   41.9763 C.3      24      M_A    0.0000
   1905 H          87.2172   29.5725   39.1883 H        24      M_A    0.0000
   1906 H          86.5474   28.4488   40.3489 H        24      M_A    0.0000
   1907 H          88.0725   26.8434   39.9196 H        24      M_A    0.0000
   1908 H          90.9793   28.2196   43.0611 H        24      M_A    0.0000
   1909 H          91.5589   29.1226   41.6469 H        24      M_A    0.0000
   1910 H          91.7599   27.3329   41.7355 H        24      M_A    0.0000
   1911 C          88.2963   27.5654   37.9138 C.3      25      M_A    0.0000
   1912 C          87.0338   26.9054   37.4395 C.3      25      M_A    0.0000
   1913 C          87.3486   25.7418   36.5524 C.2      25      M_A    0.0000
   1914 O          86.9311   25.5390   35.4470 O.2      25      M_A    0.0000
   1915 O          88.1355   24.8716   37.2131 O.3      25      M_A    0.0000
   1916 C          88.4900   23.7422   36.4629 C.3      25      M_A    0.0000
   1917 H          89.1445   26.9785   37.6114 H        25      M_A    0.0000
   1918 H          88.4089   28.5123   37.4176 H        25      M_A    0.0000
   1919 H          86.5530   26.4764   38.3028 H        25      M_A    0.0000
   1920 H          89.1408   23.1392   37.0620 H        25      M_A    0.0000
   1921 H          89.0163   24.0306   35.5753 H        25      M_A    0.0000
   1922 H          87.6192   23.1666   36.2217 H        25      M_A    0.0000
   1923 C          85.9858   27.9053   36.8743 C.3      26      M_A    0.0000
   1924 C          85.1646   27.4357   35.7084 C.3      26      M_A    0.0000
   1925 C          85.8552   26.3165   34.9941 C.2      26      M_A    0.0000
   1926 O          86.1101   26.2507   33.8244 O.2      26      M_A    0.0000
   1927 O          86.0958   25.3115   35.8574 O.3      26      M_A    0.0000
   1928 C          86.7454   24.2109   35.2825 C.3      26      M_A    0.0000
   1929 H          86.4995   28.8119   36.6106 H        26      M_A    0.0000
   1930 H          85.3313   28.1697   37.6849 H        26      M_A    0.0000
   1931 H          84.2637   26.9993   36.1064 H        26      M_A    0.0000
   1932 H          86.9215   23.4912   36.0552 H        26      M_A    0.0000
   1933 H          87.6900   24.5047   34.8708 H        26      M_A    0.0000
   1934 H          86.1248   23.7611   34.5339 H        26      M_A    0.0000
   1935 C          84.6611   28.5918   34.7988 C.3      27      M_A    0.0000
   1936 C          83.3863   29.2695   35.2113 C.3      27      M_A    0.0000
   1937 C          82.1989   28.5016   34.7213 C.2      27      M_A    0.0000
   1938 O          81.2818   28.9205   34.0726 O.2      27      M_A    0.0000
   1939 O          82.2540   27.2400   35.1887 O.3      27      M_A    0.0000
   1940 C          81.1816   26.4350   34.7815 C.3      27      M_A    0.0000
   1941 H          84.5577   28.2084   33.8000 H        27      M_A    0.0000
   1942 H          85.4494   29.3209   34.7479 H        27      M_A    0.0000
   1943 H          83.3290   29.2169   36.2858 H        27      M_A    0.0000
   1944 H          81.3404   25.4512   35.1727 H        27      M_A    0.0000
   1945 H          81.1428   26.3728   33.7126 H        27      M_A    0.0000
   1946 H          80.2604   26.8134   35.1766 H        27      M_A    0.0000
   1947 C          83.3650   30.7927   34.9004 C.3      28      M_A    0.0000
   1948 C          82.3286   31.2682   33.9236 C.3      28      M_A    0.0000
   1949 C          81.9066   30.1534   33.0187 C.2      28      M_A    0.0000
   1950 O          81.8947   30.1577   31.8198 O.2      28      M_A    0.0000
   1951 O          81.4467   29.1245   33.7555 O.3      28      M_A    0.0000
   1952 C          81.0265   28.0240   32.9964 C.3      28      M_A    0.0000
   1953 H          84.3425   31.0752   34.5537 H        28      M_A    0.0000
   1954 H          83.2314   31.3050   35.8360 H        28      M_A    0.0000
   1955 H          81.4464   31.5181   34.4891 H        28      M_A    0.0000
   1956 H          80.7180   27.2545   33.6737 H        28      M_A    0.0000
   1957 H          81.8339   27.6480   32.4007 H        28      M_A    0.0000
   1958 H          80.1904   28.2920   32.3825 H        28      M_A    0.0000
   1959 C          82.7131   32.5937   33.2076 C.3      29      M_A    0.0000
   1960 C          81.8834   32.9844   32.0188 C.3      29      M_A    0.0000
   1961 C          82.3727   32.2935   30.7847 C.2      29      M_A    0.0000
   1962 O          82.6770   32.8010   29.7420 O.2      29      M_A    0.0000
   1963 O          82.3529   30.9609   30.9765 O.3      29      M_A    0.0000
   1964 C          82.7976   30.2204   29.8730 C.3      29      M_A    0.0000
   1965 H          83.7465   32.5284   32.9192 H        29      M_A    0.0000
   1966 H          82.6678   33.3758   33.9436 H        29      M_A    0.0000
   1967 H          80.8908   32.5982   32.1802 H        29      M_A    0.0000
   1968 H          82.7781   29.1843   30.1413 H        29      M_A    0.0000
   1969 H          83.8047   30.4871   29.6225 H        29      M_A    0.0000
   1970 H          82.1436   30.3677   29.0373 H        29      M_A    0.0000
   1971 C          81.6797   34.5198   31.8823 C.3      30      M_A    0.0000
   1972 C          80.3129   34.9859   31.4715 C.3      30      M_A    0.0000
   1973 C          79.5244   33.8561   30.8868 C.2      30      M_A    0.0000
   1974 O          78.9686   33.8331   29.8248 O.2      30      M_A    0.0000
   1975 O          79.4491   32.8502   31.7788 O.3      30      M_A    0.0000
   1976 C          78.7288   31.7380   31.3228 C.3      30      M_A    0.0000
   1977 H          82.4105   34.8918   31.1874 H        30      M_A    0.0000
   1978 H          81.9334   34.9583   32.8303 H        30      M_A    0.0000
   1979 H          79.7846   35.2597   32.3696 H        30      M_A    0.0000
   1980 H          78.7614   30.9882   32.0861 H        30      M_A    0.0000
   1981 H          79.1765   31.3383   30.4352 H        30      M_A    0.0000
   1982 H          77.7051   32.0025   31.1494 H        30      M_A    0.0000
   1983 C          80.3307   36.2897   30.6246 C.3      31      M_A    0.0000
   1984 C          79.1564   37.2123   30.7803 C.3      31      M_A    0.0000
   1985 C          77.9516   36.6528   30.0908 C.2      31      M_A    0.0000
   1986 O          77.2637   37.1997   29.2753 O.2      31      M_A    0.0000
   1987 O          77.6790   35.4291   30.5821 O.3      31      M_A    0.0000
   1988 C          76.5632   34.8163   29.9962 C.3      31      M_A    0.0000
   1989 H          80.4368   36.0137   29.5912 H        31      M_A    0.0000
   1990 H          81.2322   36.8183   30.8762 H        31      M_A    0.0000
   1991 H          78.8978   37.2277   31.8260 H        31      M_A    0.0000
   1992 H          76.4576   33.8421   30.4271 H        31      M_A    0.0000
   1993 H          76.7062   34.7064   28.9400 H        31      M_A    0.0000
   1994 H          75.6760   35.3790   30.2059 H        31      M_A    0.0000
   1995 C          79.4836   38.6947   30.4445 C.3      32      M_A    0.0000
   1996 C          78.5267   39.4079   29.5335 C.3      32      M_A    0.0000
   1997 C          77.4571   40.0930   30.3249 C.2      32      M_A    0.0000
   1998 O          76.2711   39.9860   30.1858 O.2      32      M_A    0.0000
   1999 O          78.0213   40.9442   31.2026 O.3      32      M_A    0.0000
   2000 C          77.0980   41.6369   31.9973 C.3      32      M_A    0.0000
   2001 H          80.4731   38.7304   30.0259 H        32      M_A    0.0000
   2002 H          79.5458   39.2244   31.3777 H        32      M_A    0.0000
   2003 H          79.0730   40.2035   29.0549 H        32      M_A    0.0000
   2004 H          77.6466   42.2526   32.6798 H        32      M_A    0.0000
   2005 H          76.5007   40.9512   32.5639 H        32      M_A    0.0000
   2006 H          76.4825   42.2685   31.3889 H        32      M_A    0.0000
   2007 C          78.0195   38.5287   28.3557 C.3      33      M_A    0.0000
   2008 C          77.6693   39.2425   27.0821 C.3      33      M_A    0.0000
   2009 C          78.5495   40.4372   26.8883 C.2      33      M_A    0.0000
   2010 O          78.2039   41.5673   26.6860 O.2      33      M_A    0.0000
   2011 O          79.8397   40.0517   26.8926 O.3      33      M_A    0.0000
   2012 C          80.7486   41.1042   26.7193 C.3      33      M_A    0.0000
   2013 H          77.1686   37.9696   28.7004 H        33      M_A    0.0000
   2014 H          78.7823   37.7986   28.1543 H        33      M_A    0.0000
   2015 H          77.9126   38.5812   26.2672 H        33      M_A    0.0000
   2016 H          81.7377   40.6986   26.7756 H        33      M_A    0.0000
   2017 H          80.6351   41.8311   27.4983 H        33      M_A    0.0000
   2018 H          80.6195   41.5532   25.7551 H        33      M_A    0.0000
   2019 C          76.1460   39.5079   26.9186 C.3      34      M_A    0.0000
   2020 C          75.7425   40.8940   26.5061 C.3      34      M_A    0.0000
   2021 C          76.8376   41.5517   25.7263 C.2      34      M_A    0.0000
   2022 O          77.3418   42.6178   25.9420 O.2      34      M_A    0.0000
   2023 O          77.1460   40.7947   24.6563 O.3      34      M_A    0.0000
   2024 C          78.1681   41.3265   23.8586 C.3      34      M_A    0.0000
   2025 H          75.6627   39.2530   27.8443 H        34      M_A    0.0000
   2026 H          75.7774   38.8021   26.1966 H        34      M_A    0.0000
   2027 H          74.9249   40.7961   25.8114 H        34      M_A    0.0000
   2028 H          78.3599   40.6353   23.0640 H        34      M_A    0.0000
   2029 H          79.0671   41.4452   24.4294 H        34      M_A    0.0000
   2030 H          77.8602   42.2593   23.4311 H        34      M_A    0.0000
   2031 C          75.1566   41.7417   27.6704 C.3      35      M_A    0.0000
   2032 C          75.7921   43.0793   27.9182 C.3      35      M_A    0.0000
   2033 C          77.1416   43.1490   27.2749 C.2      35      M_A    0.0000
   2034 O          78.1793   43.4454   27.7970 O.2      35      M_A    0.0000
   2035 O          77.0255   42.9008   25.9566 O.3      35      M_A    0.0000
   2036 C          78.2414   42.9408   25.2609 C.3      35      M_A    0.0000
   2037 H          75.2009   41.1508   28.5672 H        35      M_A    0.0000
   2038 H          74.1102   41.8790   27.4667 H        35      M_A    0.0000
   2039 H          75.1986   43.8161   27.4029 H        35      M_A    0.0000
   2040 H          78.0444   42.6949   24.2378 H        35      M_A    0.0000
   2041 H          78.9256   42.2180   25.6578 H        35      M_A    0.0000
   2042 H          78.6605   43.9260   25.2991 H        35      M_A    0.0000
   2043 C          75.7443   43.5222   29.4078 C.3      36      M_A    0.0000
   2044 C          74.4321   44.0472   29.9146 C.3      36      M_A    0.0000
   2045 C          74.6248   45.3504   30.6249 C.2      36      M_A    0.0000
   2046 O          74.2622   45.6331   31.7322 O.2      36      M_A    0.0000
   2047 O          75.2157   46.2321   29.7964 O.3      36      M_A    0.0000
   2048 C          75.4429   47.4895   30.3718 C.3      36      M_A    0.0000
   2049 H          76.5102   44.2609   29.5600 H        36      M_A    0.0000
   2050 H          76.0391   42.6747   29.9998 H        36      M_A    0.0000
   2051 H          73.8285   44.2846   29.0544 H        36      M_A    0.0000
   2052 H          75.9460   48.0973   29.6484 H        36      M_A    0.0000
   2053 H          76.0710   47.3998   31.2353 H        36      M_A    0.0000
   2054 H          74.5127   47.9584   30.6221 H        36      M_A    0.0000
   2055 C          73.5973   42.9878   30.6880 C.3      37      M_A    0.0000
   2056 C          73.0461   43.4042   32.0211 C.3      37      M_A    0.0000
   2057 C          72.2077   44.6362   31.8833 C.2      37      M_A    0.0000
   2058 O          72.3167   45.6599   32.4978 O.2      37      M_A    0.0000
   2059 O          71.2203   44.4123   30.9956 O.3      37      M_A    0.0000
   2060 C          70.3765   45.5127   30.7934 C.3      37      M_A    0.0000
   2061 H          74.2044   42.1090   30.8084 H        37      M_A    0.0000
   2062 H          72.7870   42.6931   30.0461 H        37      M_A    0.0000
   2063 H          72.3621   42.6350   32.3391 H        37      M_A    0.0000
   2064 H          69.6561   45.2437   30.0488 H        37      M_A    0.0000
   2065 H          70.9354   46.3543   30.4364 H        37      M_A    0.0000
   2066 H          69.8563   45.7548   31.6982 H        37      M_A    0.0000
   2067 C          74.1173   43.4539   33.1470 C.3      38      M_A    0.0000
   2068 C          73.6106   43.5203   34.5588 C.3      38      M_A    0.0000
   2069 C          72.2578   42.8887   34.6635 C.2      38      M_A    0.0000
   2070 O          71.2637   43.3762   35.1235 O.2      38      M_A    0.0000
   2071 O          72.3195   41.6165   34.2267 O.3      38      M_A    0.0000
   2072 C          71.0959   40.9358   34.2826 C.3      38      M_A    0.0000
   2073 H          74.7617   44.2928   32.9562 H        38      M_A    0.0000
   2074 H          74.7365   42.5826   33.0335 H        38      M_A    0.0000
   2075 H          74.2554   42.9008   35.1598 H        38      M_A    0.0000
   2076 H          71.2455   39.9548   33.8812 H        38      M_A    0.0000
   2077 H          70.3592   41.4372   33.6876 H        38      M_A    0.0000
   2078 H          70.7680   40.8413   35.2982 H        38      M_A    0.0000
   2079 C          73.7337   44.9331   35.1961 C.3      39      M_A    0.0000
   2080 C          73.2699   45.0759   36.6170 C.3      39      M_A    0.0000
   2081 C          72.3867   43.9302   37.0007 C.2      39      M_A    0.0000
   2082 O          71.2848   43.9895   37.4693 O.2      39      M_A    0.0000
   2083 O          73.0471   42.7711   36.8172 O.3      39      M_A    0.0000
   2084 C          72.3004   41.6323   37.1479 C.3      39      M_A    0.0000
   2085 H          73.2003   45.6271   34.5722 H        39      M_A    0.0000
   2086 H          74.7672   45.2212   35.1302 H        39      M_A    0.0000
   2087 H          74.1381   44.9828   37.2480 H        39      M_A    0.0000
   2088 H          72.8985   40.7713   36.9316 H        39      M_A    0.0000
   2089 H          71.4082   41.5829   36.5565 H        39      M_A    0.0000
   2090 H          72.0670   41.6303   38.1935 H        39      M_A    0.0000
   2091 C          72.7060   46.4868   36.9465 C.3      40      M_A    0.0000
   2092 C          73.3468   47.2203   38.0892 C.3      40      M_A    0.0000
   2093 C          73.4045   46.3519   39.3067 C.2      40      M_A    0.0000
   2094 O          72.9982   46.6137   40.4039 O.2      40      M_A    0.0000
   2095 O          74.0712   45.2177   39.0200 O.3      40      M_A    0.0000
   2096 C          74.1782   44.3319   40.1006 C.3      40      M_A    0.0000
   2097 H          71.6510   46.3894   37.1281 H        40      M_A    0.0000
   2098 H          72.7916   47.0786   36.0532 H        40      M_A    0.0000
   2099 H          74.3757   47.3943   37.8212 H        40      M_A    0.0000
   2100 H          74.6874   43.4545   39.7589 H        40      M_A    0.0000
   2101 H          73.2064   44.0457   40.4498 H        40      M_A    0.0000
   2102 H          74.7534   44.7736   40.8891 H        40      M_A    0.0000
   2103 C          72.7642   48.6437   38.3172 C.3      41      M_A    0.0000
   2104 C          72.8157   49.1779   39.7194 C.3      41      M_A    0.0000
   2105 C          73.1321   48.0828   40.6893 C.2      41      M_A    0.0000
   2106 O          72.5135   47.7831   41.6715 O.2      41      M_A    0.0000
   2107 O          74.2964   47.4998   40.3463 O.3      41      M_A    0.0000
   2108 C          74.6814   46.4544   41.1966 C.3      41      M_A    0.0000
   2109 H          71.7475   48.6468   37.9682 H        41      M_A    0.0000
   2110 H          73.2956   49.3117   37.6639 H        41      M_A    0.0000
   2111 H          73.6548   49.8512   39.7749 H        41      M_A    0.0000
   2112 H          75.5918   46.0386   40.8169 H        41      M_A    0.0000
   2113 H          73.9358   45.6850   41.2079 H        41      M_A    0.0000
   2114 H          74.8633   46.8257   42.1850 H        41      M_A    0.0000
   2115 C          71.5910   50.0602   40.0923 C.3      42      M_A    0.0000
   2116 C          71.6592   51.5090   39.7043 C.3      42      M_A    0.0000
   2117 C          73.0762   51.9905   39.7119 C.2      42      M_A    0.0000
   2118 O          73.5151   52.9434   40.2922 O.2      42      M_A    0.0000
   2119 O          73.8155   51.2284   38.8837 O.3      42      M_A    0.0000
   2120 C          75.1654   51.5995   38.8221 C.3      42      M_A    0.0000
   2121 H          71.4328   49.9788   41.1524 H        42      M_A    0.0000
   2122 H          70.7271   49.6117   39.6363 H        42      M_A    0.0000
   2123 H          71.3456   51.5802   38.6761 H        42      M_A    0.0000
   2124 H          75.6669   50.9132   38.1714 H        42      M_A    0.0000
   2125 H          75.6167   51.5388   39.7920 H        42      M_A    0.0000
   2126 H          75.2626   52.5861   38.4158 H        42      M_A    0.0000
   2127 C          70.6503   52.4058   40.4757 C.3      43      M_A    0.0000
   2128 C          69.4313   52.8536   39.7221 C.3      43      M_A    0.0000
   2129 C          69.7870   53.2232   38.3162 C.2      43      M_A    0.0000
   2130 O          69.5410   54.2524   37.7527 O.2      43      M_A    0.0000
   2131 O          70.3774   52.1754   37.7106 O.3      43      M_A    0.0000
   2132 C          70.7526   52.4229   36.3832 C.3      43      M_A    0.0000
   2133 H          71.1819   53.2649   40.8428 H        43      M_A    0.0000
   2134 H          70.3455   51.8598   41.3500 H        43      M_A    0.0000
   2135 H          68.7802   52.0002   39.6303 H        43      M_A    0.0000
   2136 H          71.2422   51.5471   36.0100 H        43      M_A    0.0000
   2137 H          71.4403   53.2431   36.3336 H        43      M_A    0.0000
   2138 H          69.8874   52.6118   35.7803 H        43      M_A    0.0000
   2139 C          68.5797   53.9046   40.4886 C.3      44      M_A    0.0000
   2140 C          67.1034   53.9075   40.2145 C.3      44      M_A    0.0000
   2141 C          66.8410   53.9419   38.7414 C.2      44      M_A    0.0000
   2142 O          66.1501   54.7200   38.1460 O.2      44      M_A    0.0000
   2143 O          67.4446   52.8926   38.1517 O.3      44      M_A    0.0000
   2144 C          67.2594   52.8360   36.7637 C.3      44      M_A    0.0000
   2145 H          68.9860   54.8778   40.2804 H        44      M_A    0.0000
   2146 H          68.7447   53.7414   41.5381 H        44      M_A    0.0000
   2147 H          66.7145   52.9589   40.5454 H        44      M_A    0.0000
   2148 H          67.8062   51.9941   36.3920 H        44      M_A    0.0000
   2149 H          67.6415   53.7216   36.2971 H        44      M_A    0.0000
   2150 H          66.2227   52.6978   36.5313 H        44      M_A    0.0000
   2151 C          66.3192   54.9566   41.0521 C.3      45      M_A    0.0000
   2152 C          65.0115   55.4312   40.4871 C.3      45      M_A    0.0000
   2153 C          65.1760   55.8533   39.0607 C.2      45      M_A    0.0000
   2154 O          64.8605   56.9027   38.5741 O.2      45      M_A    0.0000
   2155 O          65.6748   54.8294   38.3424 O.3      45      M_A    0.0000
   2156 C          65.8686   55.1265   36.9867 C.3      45      M_A    0.0000
   2157 H          66.9655   55.7990   41.2197 H        45      M_A    0.0000
   2158 H          66.1501   54.5251   42.0220 H        45      M_A    0.0000
   2159 H          64.3505   54.5812   40.4524 H        45      M_A    0.0000
   2160 H          66.2996   54.2657   36.5186 H        45      M_A    0.0000
   2161 H          66.5467   55.9486   36.8752 H        45      M_A    0.0000
   2162 H          64.9307   55.3371   36.5135 H        45      M_A    0.0000
   2163 C          64.2755   56.4522   41.3998 C.3      46      M_A    0.0000
   2164 C          63.6985   57.6649   40.7285 C.3      46      M_A    0.0000
   2165 C          64.2415   57.8077   39.3412 C.2      46      M_A    0.0000
   2166 O          64.7697   58.7730   38.8651 O.2      46      M_A    0.0000
   2167 O          63.9798   56.6899   38.6376 O.3      46      M_A    0.0000
   2168 C          64.4527   56.7238   37.3189 C.3      46      M_A    0.0000
   2169 H          64.9567   56.7589   42.1727 H        46      M_A    0.0000
   2170 H          63.4898   55.9183   41.9029 H        46      M_A    0.0000
   2171 H          62.6438   57.4876   40.5988 H        46      M_A    0.0000
   2172 H          64.2282   55.7813   36.8635 H        46      M_A    0.0000
   2173 H          65.5149   56.8633   37.3039 H        46      M_A    0.0000
   2174 H          63.9574   57.4956   36.7651 H        46      M_A    0.0000
   2175 C          63.7667   58.9490   41.6024 C.3      47      M_A    0.0000
   2176 C          62.9098   60.1047   41.1728 C.3      47      M_A    0.0000
   2177 C          63.1072   60.3949   39.7179 C.2      47      M_A    0.0000
   2178 O          63.3931   61.4478   39.2209 O.2      47      M_A    0.0000
   2179 O          62.8342   59.2907   38.9972 O.3      47      M_A    0.0000
   2180 C          62.9925   59.4599   37.6151 C.3      47      M_A    0.0000
   2181 H          64.7936   59.2623   41.6539 H        47      M_A    0.0000
   2182 H          63.5012   58.6645   42.6045 H        47      M_A    0.0000
   2183 H          61.8828   59.7909   41.2582 H        47      M_A    0.0000
   2184 H          62.7893   58.5211   37.1424 H        47      M_A    0.0000
   2185 H          63.9991   59.7452   37.3841 H        47      M_A    0.0000
   2186 H          62.2950   60.1845   37.2460 H        47      M_A    0.0000
   2187 C          63.0135   61.3374   42.1146 C.3      48      M_A    0.0000
   2188 C          62.8405   62.6877   41.4812 C.3      48      M_A    0.0000
   2189 C          63.2388   62.6483   40.0391 C.2      48      M_A    0.0000
   2190 O          64.0223   63.3659   39.4835 O.2      48      M_A    0.0000
   2191 O          62.5148   61.7120   39.3971 O.3      48      M_A    0.0000
   2192 C          62.8167   61.5952   38.0336 C.3      48      M_A    0.0000
   2193 H          63.9634   61.2943   42.6158 H        48      M_A    0.0000
   2194 H          62.2747   61.2103   42.8850 H        48      M_A    0.0000
   2195 H          61.7853   62.9050   41.4736 H        48      M_A    0.0000
   2196 H          62.2181   60.8049   37.6297 H        48      M_A    0.0000
   2197 H          63.8490   61.3424   37.8975 H        48      M_A    0.0000
   2198 H          62.5738   62.5029   37.5190 H        48      M_A    0.0000
   2199 C          63.4644   63.8459   42.3098 C.3      49      M_A    0.0000
   2200 C          64.6005   64.5947   41.6751 C.3      49      M_A    0.0000
   2201 C          65.8520   63.7742   41.7007 C.2      49      M_A    0.0000
   2202 O          66.9227   64.0983   42.1320 O.2      49      M_A    0.0000
   2203 O          65.6337   62.6000   41.0789 O.3      49      M_A    0.0000
   2204 C          66.7509   61.7544   41.0514 C.3      49      M_A    0.0000
   2205 H          63.7815   63.4452   43.2555 H        49      M_A    0.0000
   2206 H          62.6711   64.5341   42.5393 H        49      M_A    0.0000
   2207 H          64.3638   64.7104   40.6305 H        49      M_A    0.0000
   2208 H          66.4621   60.8416   40.5726 H        49      M_A    0.0000
   2209 H          67.0751   61.5274   42.0471 H        49      M_A    0.0000
   2210 H          67.5423   62.2007   40.4836 H        49      M_A    0.0000
   2211 C          64.7521   66.0512   42.1974 C.3      50      M_A    0.0000
   2212 C          66.1518   66.5751   42.3409 C.3      50      M_A    0.0000
   2213 C          67.0098   65.5922   43.0742 C.2      50      M_A    0.0000
   2214 O          67.6796   65.7986   44.0469 O.2      50      M_A    0.0000
   2215 O          66.9949   64.4110   42.4280 O.3      50      M_A    0.0000
   2216 C          67.7708   63.4176   43.0403 C.3      50      M_A    0.0000
   2217 H          64.2435   66.1206   43.1418 H        50      M_A    0.0000
   2218 H          64.2031   66.6869   41.5265 H        50      M_A    0.0000
   2219 H          66.5753   66.6322   41.3520 H        50      M_A    0.0000
   2220 H          67.6607   62.5165   42.4730 H        50      M_A    0.0000
   2221 H          67.4273   63.2342   44.0385 H        50      M_A    0.0000
   2222 H          68.8050   63.6974   43.0367 H        50      M_A    0.0000
   2223 C          66.2162   68.0356   42.8703 C.3      51      M_A    0.0000
   2224 C          67.1071   68.2868   44.0525 C.3      51      M_A    0.0000
   2225 C          68.5466   68.2531   43.6442 C.2      51      M_A    0.0000
   2226 O          69.4221   67.5918   44.1276 O.2      51      M_A    0.0000
   2227 O          68.7602   69.1590   42.6711 O.3      51      M_A    0.0000
   2228 C          70.0850   69.2037   42.2162 C.3      51      M_A    0.0000
   2229 H          65.2147   68.3501   43.1014 H        51      M_A    0.0000
   2230 H          66.5317   68.6557   42.0509 H        51      M_A    0.0000
   2231 H          66.9321   69.2994   44.3757 H        51      M_A    0.0000
   2232 H          70.1380   69.9226   41.4249 H        51      M_A    0.0000
   2233 H          70.3817   68.2499   41.8285 H        51      M_A    0.0000
   2234 H          70.7394   69.5168   43.0045 H        51      M_A    0.0000
   2235 C          66.7497   67.4210   45.2935 C.3      52      M_A    0.0000
   2236 C          65.6410   67.9248   46.1717 C.3      52      M_A    0.0000
   2237 C          65.6393   67.2046   47.4837 C.2      52      M_A    0.0000
   2238 O          64.7177   66.6347   47.9967 O.2      52      M_A    0.0000
   2239 O          66.8380   67.3506   48.0793 O.3      52      M_A    0.0000
   2240 C          66.9390   66.7071   49.3201 C.3      52      M_A    0.0000
   2241 H          67.6424   67.2937   45.8786 H        52      M_A    0.0000
   2242 H          66.4983   66.4399   44.9333 H        52      M_A    0.0000
   2243 H          65.8665   68.9495   46.4160 H        52      M_A    0.0000
   2244 H          67.9340   66.8524   49.6872 H        52      M_A    0.0000
   2245 H          66.7672   65.6549   49.2130 H        52      M_A    0.0000
   2246 H          66.2519   67.1378   50.0203 H        52      M_A    0.0000
   2247 C          64.2642   67.9961   45.4530 C.3      53      M_A    0.0000
   2248 C          63.0444   67.9958   46.3285 C.3      53      M_A    0.0000
   2249 C          63.0177   66.7756   47.1947 C.2      53      M_A    0.0000
   2250 O          62.1245   65.9833   47.3039 O.2      53      M_A    0.0000
   2251 O          64.1451   66.7195   47.9288 O.3      53      M_A    0.0000
   2252 C          64.2176   65.6056   48.7760 C.3      53      M_A    0.0000
   2253 H          64.2086   67.1775   44.7585 H        53      M_A    0.0000
   2254 H          64.2673   68.8862   44.8503 H        53      M_A    0.0000
   2255 H          63.1413   68.8221   47.0129 H        53      M_A    0.0000
   2256 H          65.1607   65.6364   49.2816 H        53      M_A    0.0000
   2257 H          64.1663   64.6980   48.2088 H        53      M_A    0.0000
   2258 H          63.4373   65.6435   49.5091 H        53      M_A    0.0000
   2259 C          61.7270   68.2898   45.5568 C.3      54      M_A    0.0000
   2260 C          60.5406   67.4341   45.8954 C.3      54      M_A    0.0000
   2261 C          60.9627   66.2393   46.6917 C.2      54      M_A    0.0000
   2262 O          60.7255   65.0885   46.4534 O.2      54      M_A    0.0000
   2263 O          61.6060   66.6432   47.8035 O.3      54      M_A    0.0000
   2264 C          62.0458   65.5925   48.6199 C.3      54      M_A    0.0000
   2265 H          61.9344   68.2169   44.5046 H        54      M_A    0.0000
   2266 H          61.4811   69.3214   45.7317 H        54      M_A    0.0000
   2267 H          59.9132   68.0050   46.5595 H        54      M_A    0.0000
   2268 H          62.5726   66.0174   49.4493 H        54      M_A    0.0000
   2269 H          62.7179   64.9545   48.0820 H        54      M_A    0.0000
   2270 H          61.2100   65.0377   48.9960 H        54      M_A    0.0000
   2271 C          59.6279   67.1282   44.6744 C.3      55      M_A    0.0000
   2272 C          58.9290   65.7993   44.6698 C.2      55      M_A    0.0000
   2273 C          58.1071   65.6318   45.9092 C.2      55      M_A    0.0000
   2274 O          58.1428   64.7183   46.6849 O.2      55      M_A    0.0000
   2275 O          57.2264   66.6458   46.0063 O.3      55      M_A    0.0000
   2276 C          56.4069   66.5809   47.1412 C.3      55      M_A    0.0000
   2277 H          60.2208   67.2259   43.7831 H        55      M_A    0.0000
   2278 H          58.8959   67.9135   44.6217 H        55      M_A    0.0000
   2279 H          58.2163   65.8152   43.8621 H        55      M_A    0.0000
   2280 H          55.7756   67.4455   47.1422 H        55      M_A    0.0000
   2281 H          56.9994   66.5925   48.0339 H        55      M_A    0.0000
   2282 H          55.7875   65.7076   47.1043 H        55      M_A    0.0000
   2283 C          56.5833   69.7398   42.5158 C.2      56      M_A    0.0000
   2284 C          55.8068   70.4129   43.6543 C.3      56      M_A    0.0000
   2285 C          55.3556   69.3524   44.7589 C.2      56      M_A    0.0000
   2286 O          54.2358   69.3062   45.3747 O.2      56      M_A    0.0000
   2287 O          56.4474   68.4651   45.0475 O.3      56      M_A    0.0000
   2288 C          56.1296   67.4253   46.0732 C.3      56      M_A    0.0000
   2289 H          55.9089   69.0854   41.9478 H        56      M_A    0.0000
   2290 H          56.9189   70.5059   41.8045 H        56      M_A    0.0000
   2291 H          56.7131   70.9517   44.1112 H        56      M_A    0.0000
   2292 H          57.0476   66.7570   46.1931 H        56      M_A    0.0000
   2293 H          55.2529   66.7776   45.7293 H        56      M_A    0.0000
   2294 H          55.9042   67.9161   47.0803 H        56      M_A    0.0000
   2295 C          54.7181   71.6272   43.3536 C.3      57      M_A    0.0000
   2296 C          53.1912   71.3379   43.7407 C.3      57      M_A    0.0000
   2297 C          53.1026   70.2405   44.8966 C.2      57      M_A    0.0000
   2298 O          52.4214   69.1583   44.8849 O.2      57      M_A    0.0000
   2299 O          53.8538   70.6829   46.0379 O.3      57      M_A    0.0000
   2300 C          53.8391   69.7229   47.1835 C.3      57      M_A    0.0000
   2301 H          54.7872   71.8985   42.2418 H        57      M_A    0.0000
   2302 H          55.0822   72.5551   43.9201 H        57      M_A    0.0000
   2303 H          52.7698   72.2988   44.2092 H        57      M_A    0.0000
   2304 H          54.4948   70.1543   48.0127 H        57      M_A    0.0000
   2305 H          54.2730   68.7141   46.8669 H        57      M_A    0.0000
   2306 H          52.7768   69.6018   47.5871 H        57      M_A    0.0000
   2307 C          52.2168   71.0619   42.4275 C.3      58      M_A    0.0000
   2308 C          50.7921   70.3897   42.7162 C.3      58      M_A    0.0000
   2309 C          50.9215   69.2555   43.8320 C.2      58      M_A    0.0000
   2310 O          50.5313   68.0405   43.7487 O.2      58      M_A    0.0000
   2311 O          51.4826   69.8195   45.0278 O.3      58      M_A    0.0000
   2312 C          51.6499   68.8370   46.1417 C.3      58      M_A    0.0000
   2313 H          52.8012   70.4168   41.6813 H        58      M_A    0.0000
   2314 H          52.0597   72.0706   41.9055 H        58      M_A    0.0000
   2315 H          50.1231   71.1964   43.1875 H        58      M_A    0.0000
   2316 H          52.1366   69.3803   47.0201 H        58      M_A    0.0000
   2317 H          52.3354   67.9805   45.8213 H        58      M_A    0.0000
   2318 H          50.6323   68.4412   46.4789 H        58      M_A    0.0000
   2319 C          49.9823   69.9393   41.3408 C.3      59      M_A    0.0000
   2320 C          49.0369   68.6513   41.4507 C.3      59      M_A    0.0000
   2321 C          49.4020   67.7950   42.7475 C.2      59      M_A    0.0000
   2322 O          49.6804   66.5478   42.7975 O.2      59      M_A    0.0000
   2323 O          49.2920   68.6223   43.9163 O.3      59      M_A    0.0000
   2324 C          49.6165   67.9155   45.1928 C.3      59      M_A    0.0000
   2325 H          50.7561   69.7775   40.5103 H        59      M_A    0.0000
   2326 H          49.3563   70.8401   41.0072 H        59      M_A    0.0000
   2327 H          47.9668   69.0278   41.6338 H        59      M_A    0.0000
   2328 H          49.5363   68.6722   46.0442 H        59      M_A    0.0000
   2329 H          50.6854   67.5118   45.1671 H        59      M_A    0.0000
   2330 H          48.8669   67.0744   45.3832 H        59      M_A    0.0000
   2331 C          48.9302   67.7868   40.0395 C.3      60      M_A    0.0000
   2332 C          47.4822   67.6885   39.3626 C.3      60      M_A    0.0000
   2333 C          46.3381   67.9745   40.4385 C.2      60      M_A    0.0000
   2334 O          45.3299   67.2362   40.7102 O.2      60      M_A    0.0000
   2335 O          46.5485   69.2653   41.0321 O.3      60      M_A    0.0000
   2336 C          45.5289   69.6335   42.0612 C.3      60      M_A    0.0000
   2337 H          49.3332   66.7319   40.2382 H        60      M_A    0.0000
   2338 H          49.6632   68.2613   39.2964 H        60      M_A    0.0000
   2339 H          47.4003   68.5485   38.6049 H        60      M_A    0.0000
   2340 H          45.8147   70.6520   42.4911 H        60      M_A    0.0000
   2341 H          45.5238   68.8702   42.9117 H        60      M_A    0.0000
   2342 H          44.4944   69.7191   41.5831 H        60      M_A    0.0000
   2343 C          47.2694   66.3193   38.4514 C.3      61      M_A    0.0000
   2344 C          47.2304   66.5106   36.8618 C.3      61      M_A    0.0000
   2345 C          45.8199   67.0991   36.4009 C.2      61      M_A    0.0000
   2346 O          45.0340   66.6185   35.5140 O.2      61      M_A    0.0000
   2347 O          45.5715   68.3397   37.0806 O.3      61      M_A    0.0000
   2348 C          44.2686   68.9781   36.7215 C.3      61      M_A    0.0000
   2349 H          46.3045   65.8074   38.8000 H        61      M_A    0.0000
   2350 H          48.1170   65.5970   38.7243 H        61      M_A    0.0000
   2351 H          47.9946   67.3270   36.5973 H        61      M_A    0.0000
   2352 H          44.1586   69.9283   37.3451 H        61      M_A    0.0000
   2353 H          43.3982   68.2800   36.9692 H        61      M_A    0.0000
   2354 H          44.2585   69.2667   35.6159 H        61      M_A    0.0000
   2355 C          47.7488   65.1778   36.0222 C.3      62      M_A    0.0000
   2356 C          47.1149   64.9502   34.5692 C.3      62      M_A    0.0000
   2357 C          45.5886   64.4974   34.6865 C.2      62      M_A    0.0000
   2358 O          45.0443   63.4684   34.1570 O.2      62      M_A    0.0000
   2359 O          44.8509   65.4818   35.4276 O.3      62      M_A    0.0000
   2360 C          43.4029   65.1530   35.5991 C.3      62      M_A    0.0000
   2361 H          47.5594   64.2528   36.6726 H        62      M_A    0.0000
   2362 H          48.8886   65.2599   35.9285 H        62      M_A    0.0000
   2363 H          47.0829   65.9730   34.0466 H        62      M_A    0.0000
   2364 H          42.9276   65.9763   36.2316 H        62      M_A    0.0000
   2365 H          43.2798   64.1583   36.1481 H        62      M_A    0.0000
   2366 H          42.8782   65.1268   34.5842 H        62      M_A    0.0000
   2367 C          48.0561   64.0129   33.5763 C.3      63      M_A    0.0000
   2368 C          47.3010   62.8970   32.7107 C.3      63      M_A    0.0000
   2369 C          46.1992   62.1514   33.5930 C.2      63      M_A    0.0000
   2370 O          46.0731   60.8912   33.7697 O.2      63      M_A    0.0000
   2371 O          45.2740   63.1146   34.1210 O.3      63      M_A    0.0000
   2372 C          44.1964   62.5196   34.9690 C.3      63      M_A    0.0000
   2373 H          48.8657   63.5171   34.2191 H        63      M_A    0.0000
   2374 H          48.6151   64.7236   32.8713 H        63      M_A    0.0000
   2375 H          46.7076   63.4433   31.8923 H        63      M_A    0.0000
   2376 H          43.5485   63.3726   35.3646 H        63      M_A    0.0000
   2377 H          44.6480   61.9648   35.8603 H        63      M_A    0.0000
   2378 H          43.5386   61.8236   34.3455 H        63      M_A    0.0000
   2379 C          48.3294   61.9008   31.8739 C.3      64      M_A    0.0000
   2380 C          47.7081   60.5395   31.3032 C.3      64      M_A    0.0000
   2381 C          46.9922   60.7936   29.8992 C.2      64      M_A    0.0000
   2382 O          45.7941   60.4856   29.5752 O.2      64      M_A    0.0000
   2383 O          47.9334   61.3632   28.9760 O.3      64      M_A    0.0000
   2384 C          47.3625   61.6445   27.6235 C.3      64      M_A    0.0000
   2385 H          49.2213   61.6603   32.5531 H        64      M_A    0.0000
   2386 H          48.7602   62.5128   31.0053 H        64      M_A    0.0000
   2387 H          48.5857   59.8362   31.0672 H        64      M_A    0.0000
   2388 H          48.1800   62.1283   26.9900 H        64      M_A    0.0000
   2389 H          46.4862   62.3740   27.7019 H        64      M_A    0.0000
   2390 H          47.0399   60.6717   27.1179 H        64      M_A    0.0000
   2391 C          46.8048   59.7066   32.4170 C.3      65      M_A    0.0000
   2392 C          46.5018   58.1677   32.0931 C.3      65      M_A    0.0000
   2393 C          46.3441   57.9449   30.5203 C.2      65      M_A    0.0000
   2394 O          45.3660   57.3891   29.9122 O.2      65      M_A    0.0000
   2395 O          47.5323   58.3935   29.8498 O.3      65      M_A    0.0000
   2396 C          47.4889   58.2314   28.3645 C.3      65      M_A    0.0000
   2397 H          45.8169   60.2693   32.5649 H        65      M_A    0.0000
   2398 H          47.3543   59.7803   33.4206 H        65      M_A    0.0000
   2399 H          47.4360   57.5666   32.3869 H        65      M_A    0.0000
   2400 H          48.4593   58.6537   27.9359 H        65      M_A    0.0000
   2401 H          46.6129   58.8175   27.9226 H        65      M_A    0.0000
   2402 H          47.4212   57.1249   28.0871 H        65      M_A    0.0000
   2403 C          45.2906   57.5219   33.0237 C.3      66      M_A    0.0000
   2404 C          44.3445   56.4364   32.3227 C.3      66      M_A    0.0000
   2405 C          43.7127   57.0247   30.9800 C.2      66      M_A    0.0000
   2406 O          42.4750   57.0668   30.6614 O.2      66      M_A    0.0000
   2407 O          44.7652   57.4448   30.0976 O.3      66      M_A    0.0000
   2408 C          44.2808   58.0170   28.8044 C.3      66      M_A    0.0000
   2409 H          44.6520   58.3857   33.4243 H        66      M_A    0.0000
   2410 H          45.7862   57.0525   33.9448 H        66      M_A    0.0000
   2411 H          45.0156   55.5685   31.9809 H        66      M_A    0.0000
   2412 H          45.1926   58.3516   28.2041 H        66      M_A    0.0000
   2413 H          43.6171   58.9282   28.9927 H        66      M_A    0.0000
   2414 H          43.7220   57.2223   28.2026 H        66      M_A    0.0000
   2415 C          43.2627   55.7313   33.3633 C.3      67      M_A    0.0000
   2416 C          41.7161   55.8070   32.9548 C.3      67      M_A    0.0000
   2417 C          41.5476   55.7076   31.3705 C.2      67      M_A    0.0000
   2418 O          40.9168   56.5172   30.6076 O.2      67      M_A    0.0000
   2419 O          42.1517   54.4932   30.8982 O.3      67      M_A    0.0000
   2420 C          42.0521   54.3011   29.4192 C.3      67      M_A    0.0000
   2421 H          43.4093   56.2005   34.3992 H        67      M_A    0.0000
   2422 H          43.5702   54.6326   33.4767 H        67      M_A    0.0000
   2423 H          41.2071   54.8634   33.3683 H        67      M_A    0.0000
   2424 H          42.5957   53.3330   29.1527 H        67      M_A    0.0000
   2425 H          42.5590   55.1643   28.8677 H        67      M_A    0.0000
   2426 H          40.9583   54.2015   29.1040 H        67      M_A    0.0000
   2427 C          40.9021   57.0595   33.6751 C.3      68      M_A    0.0000
   2428 C          39.3062   57.0524   33.5426 C.3      68      M_A    0.0000
   2429 C          38.7551   55.5562   33.4653 C.2      68      M_A    0.0000
   2430 O          37.9866   55.0603   32.5716 O.2      68      M_A    0.0000
   2431 O          39.1841   54.8256   34.6250 O.3      68      M_A    0.0000
   2432 C          38.7222   53.4043   34.6521 C.3      68      M_A    0.0000
   2433 H          41.3177   58.0416   33.2540 H        68      M_A    0.0000
   2434 H          41.1890   57.0547   34.7852 H        68      M_A    0.0000
   2435 H          38.8802   57.4765   34.5219 H        68      M_A    0.0000
   2436 H          39.1510   52.9127   35.5892 H        68      M_A    0.0000
   2437 H          39.1098   52.8392   33.7374 H        68      M_A    0.0000
   2438 H          37.5818   53.3578   34.7076 H        68      M_A    0.0000
   2439 C          38.7351   58.0775   32.3707 C.3      69      M_A    0.0000
   2440 C          37.2381   57.8258   31.8605 C.3      69      M_A    0.0000
   2441 C          37.0107   56.2818   31.5252 C.2      69      M_A    0.0000
   2442 O          36.5651   55.7848   30.4344 O.2      69      M_A    0.0000
   2443 O          37.3047   55.4894   32.6864 O.3      69      M_A    0.0000
   2444 C          37.1255   54.0200   32.4797 C.3      69      M_A    0.0000
   2445 H          39.4561   58.0353   31.4802 H        69      M_A    0.0000
   2446 H          38.8190   59.1436   32.7844 H        69      M_A    0.0000
   2447 H          36.5352   58.0458   32.7425 H        69      M_A    0.0000
   2448 H          37.4230   53.4898   33.4462 H        69      M_A    0.0000
   2449 H          37.8042   53.6475   31.6390 H        69      M_A    0.0000
   2450 H          36.0305   53.7804   32.2569 H        69      M_A    0.0000
   2451 C          36.7551   58.8845   30.6789 C.3      70      M_A    0.0000
   2452 C          35.7864   58.3038   29.5435 C.3      70      M_A    0.0000
   2453 C          35.8361   56.7084   29.5242 C.2      70      M_A    0.0000
   2454 O          36.0740   55.9542   28.5192 O.2      70      M_A    0.0000
   2455 O          35.4816   56.2008   30.8201 O.3      70      M_A    0.0000
   2456 C          35.4989   54.7091   30.9132 C.3      70      M_A    0.0000
   2457 H          37.6948   59.3262   30.1925 H        70      M_A    0.0000
   2458 H          36.2381   59.7632   31.2035 H        70      M_A    0.0000
   2459 H          34.7094   58.5647   29.8473 H        70      M_A    0.0000
   2460 H          35.2432   54.4206   31.9880 H        70      M_A    0.0000
   2461 H          36.5390   54.3041   30.6675 H        70      M_A    0.0000
   2462 H          34.7108   54.2582   30.2194 H        70      M_A    0.0000
   2463 C          35.9835   59.0352   28.0682 C.3      71      M_A    0.0000
   2464 C          35.2780   60.4592   27.8701 C.3      71      M_A    0.0000
   2465 C          33.7303   60.3777   28.2525 C.2      71      M_A    0.0000
   2466 O          32.7357   60.7316   27.5307 O.2      71      M_A    0.0000
   2467 O          33.5931   59.9128   29.6044 O.3      71      M_A    0.0000
   2468 C          32.1760   59.7970   30.0656 C.3      71      M_A    0.0000
   2469 H          35.6162   58.3093   27.2603 H        71      M_A    0.0000
   2470 H          37.1114   59.1449   27.8936 H        71      M_A    0.0000
   2471 H          35.7376   61.1781   28.6397 H        71      M_A    0.0000
   2472 H          32.1850   59.3842   31.1302 H        71      M_A    0.0000
   2473 H          31.5960   59.0707   29.4007 H        71      M_A    0.0000
   2474 H          31.6772   60.8251   30.0794 H        71      M_A    0.0000
   2475 C          35.6082   61.1629   26.4052 C.3      72      M_A    0.0000
   2476 C          37.0938   61.7222   26.1932 C.3      72      M_A    0.0000
   2477 C          38.1618   60.5424   26.3186 C.2      72      M_A    0.0000
   2478 O          39.1907   60.5080   27.0772 O.2      72      M_A    0.0000
   2479 O          37.8532   59.5117   25.3672 O.3      72      M_A    0.0000
   2480 C          38.7953   58.3518   25.4020 C.3      72      M_A    0.0000
   2481 H          34.8525   62.0091   26.2396 H        72      M_A    0.0000
   2482 H          35.3791   60.3830   25.5965 H        72      M_A    0.0000
   2483 H          37.1718   62.0801   25.1040 H        72      M_A    0.0000
   2484 H          38.4343   57.5821   24.6397 H        72      M_A    0.0000
   2485 H          38.7941   57.8650   26.4360 H        72      M_A    0.0000
   2486 H          39.8482   58.6859   25.1093 H        72      M_A    0.0000
   2487 C          37.4260   63.0751   27.0929 C.3      73      M_A    0.0000
   2488 C          38.9690   63.4738   27.2515 C.3      73      M_A    0.0000
   2489 C          39.1126   64.8838   27.9861 C.2      73      M_A    0.0000
   2490 O          39.7646   65.9055   27.5782 O.2      73      M_A    0.0000
   2491 O          38.4552   64.8301   29.2619 O.3      73      M_A    0.0000
   2492 C          38.5277   66.1067   30.0362 C.3      73      M_A    0.0000
   2493 H          36.9572   62.9356   28.1298 H        73      M_A    0.0000
   2494 H          36.8578   63.9477   26.6130 H        73      M_A    0.0000
   2495 H          39.4459   62.7139   27.9695 H        73      M_A    0.0000
   2496 H          37.9432   65.9634   31.0065 H        73      M_A    0.0000
   2497 H          38.0479   66.9606   29.4473 H        73      M_A    0.0000
   2498 H          39.6126   66.3511   30.2990 H        73      M_A    0.0000
   2499 C          39.8408   63.3148   25.8498 C.3      74      M_A    0.0000
   2500 C          41.3340   62.7530   25.9899 C.3      74      M_A    0.0000
   2501 C          41.8408   62.8740   27.4988 C.2      74      M_A    0.0000
   2502 O          42.9151   63.4317   27.9114 O.2      74      M_A    0.0000
   2503 O          40.9372   62.1722   28.3670 O.3      74      M_A    0.0000
   2504 C          41.3195   62.2245   29.8111 C.3      74      M_A    0.0000
   2505 H          39.8623   64.3353   25.3276 H        74      M_A    0.0000
   2506 H          39.2417   62.6264   25.1557 H        74      M_A    0.0000
   2507 H          41.2954   61.6243   25.7782 H        74      M_A    0.0000
   2508 H          40.5169   61.6734   30.4077 H        74      M_A    0.0000
   2509 H          41.3621   63.3068   30.1756 H        74      M_A    0.0000
   2510 H          42.3202   61.6982   29.9768 H        74      M_A    0.0000
   2511 C          42.3750   63.3485   24.8445 C.3      75      M_A    0.0000
   2512 C          42.6474   62.4217   23.5672 C.2      75      M_A    0.0000
   2513 C          41.2764   62.0538   22.8370 C.2      75      M_A    0.0000
   2514 O          40.8489   60.8865   22.5370 O.2      75      M_A    0.0000
   2515 O          40.5899   63.2600   22.4676 O.3      75      M_A    0.0000
   2516 C          39.2856   63.0284   21.7753 C.3      75      M_A    0.0000
   2517 H          43.3693   63.5919   25.3610 H        75      M_A    0.0000
   2518 H          41.9538   64.3566   24.4968 H        75      M_A    0.0000
   2519 H          43.2307   63.0535   22.8050 H        75      M_A    0.0000
   2520 H          38.8125   64.0463   21.5661 H        75      M_A    0.0000
   2521 H          38.5772   62.4307   22.4441 H        75      M_A    0.0000
   2522 H          39.4536   62.4948   20.7789 H        75      M_A    0.0000
   2523 C          43.3012   62.8793   19.7244 C.2      76      M_A    0.0000
   2524 C          43.4017   62.2418   18.4688 C.3      76      M_A    0.0000
   2525 C          42.7195   61.0111   18.4819 C.2      76      M_A    0.0000
   2526 O          43.1291   60.0015   18.1926 O.2      76      M_A    0.0000
   2527 O          41.5100   61.2006   18.8046 O.3      76      M_A    0.0000
   2528 C          40.7884   60.0989   18.8460 C.3      76      M_A    0.0000
   2529 H          42.8779   62.2485   20.3910 H        76      M_A    0.0000
   2530 H          44.2294   63.0656   20.0785 H        76      M_A    0.0000
   2531 H          42.8995   62.8133   17.8000 H        76      M_A    0.0000
   2532 H          39.8596   60.3473   19.1438 H        76      M_A    0.0000
   2533 H          41.1737   59.4487   19.5122 H        76      M_A    0.0000
   2534 H          40.7301   59.6835   17.9301 H        76      M_A    0.0000
   2535 C          44.7666   62.1923   17.9474 C.3      77      M_A    0.0000
   2536 C          45.2600   60.9219   17.5792 C.3      77      M_A    0.0000
   2537 C          45.0533   60.6887   16.2069 C.2      77      M_A    0.0000
   2538 O          44.5416   59.8017   15.7356 O.2      77      M_A    0.0000
   2539 O          45.6048   61.6079   15.5332 O.3      77      M_A    0.0000
   2540 C          45.4621   61.4753   14.2300 C.3      77      M_A    0.0000
   2541 H          45.3796   62.6067   18.6359 H        77      M_A    0.0000
   2542 H          44.8020   62.8082   17.1468 H        77      M_A    0.0000
   2543 H          46.2663   60.9453   17.6929 H        77      M_A    0.0000
   2544 H          45.9004   62.2662   13.7879 H        77      M_A    0.0000
   2545 H          44.4861   61.4705   13.9800 H        77      M_A    0.0000
   2546 H          45.9195   60.6365   13.9109 H        77      M_A    0.0000
   2547 C          44.8219   59.8463   18.4671 C.3      78      M_A    0.0000
   2548 C          45.0541   58.5252   18.0269 C.3      78      M_A    0.0000
   2549 C          46.4151   58.1917   18.1567 C.2      78      M_A    0.0000
   2550 O          47.0967   57.7850   17.3562 O.2      78      M_A    0.0000
   2551 O          46.7756   58.3440   19.3608 O.3      78      M_A    0.0000
   2552 C          48.0425   58.0561   19.5805 C.3      78      M_A    0.0000
   2553 H          43.8359   59.9735   18.6497 H        78      M_A    0.0000
   2554 H          45.2828   59.9873   19.3554 H        78      M_A    0.0000
   2555 H          44.5698   57.9056   18.6654 H        78      M_A    0.0000
   2556 H          48.2391   58.2412   20.5501 H        78      M_A    0.0000
   2557 H          48.6403   58.6392   19.0168 H        78      M_A    0.0000
   2558 H          48.2167   57.0806   19.3994 H        78      M_A    0.0000
   2559 C          44.4624   58.2326   16.7225 C.3      79      M_A    0.0000
   2560 C          43.3163   57.4083   16.7155 C.3      79      M_A    0.0000
   2561 C          43.4741   56.3327   17.6091 C.2      79      M_A    0.0000
   2562 O          43.3506   55.2352   17.3835 O.2      79      M_A    0.0000
   2563 O          43.7117   56.7780   18.7702 O.3      79      M_A    0.0000
   2564 C          43.8773   55.8391   19.6798 C.3      79      M_A    0.0000
   2565 H          45.1783   57.8215   16.1394 H        79      M_A    0.0000
   2566 H          44.2377   59.1190   16.2919 H        79      M_A    0.0000
   2567 H          42.5510   57.9536   17.0935 H        79      M_A    0.0000
   2568 H          44.0945   56.2887   20.5538 H        79      M_A    0.0000
   2569 H          44.6461   55.2375   19.4309 H        79      M_A    0.0000
   2570 H          43.0284   55.3093   19.7951 H        79      M_A    0.0000
   2571 C          42.8694   57.0423   15.3726 C.3      80      M_A    0.0000
   2572 C          42.2077   55.8024   15.2393 C.3      80      M_A    0.0000
   2573 C          42.3836   55.0201   16.3957 C.2      80      M_A    0.0000
   2574 O          42.7703   53.9626   16.4511 O.2      80      M_A    0.0000
   2575 O          41.9645   55.6574   17.4062 O.3      80      M_A    0.0000
   2576 C          42.0907   55.0019   18.5423 C.3      80      M_A    0.0000
   2577 H          43.6720   57.0650   14.7587 H        80      M_A    0.0000
   2578 H          42.2600   57.7814   15.0499 H        80      M_A    0.0000
   2579 H          41.2138   55.9942   15.2008 H        80      M_A    0.0000
   2580 H          41.7656   55.6003   19.2835 H        80      M_A    0.0000
   2581 H          43.0574   54.7767   18.7149 H        80      M_A    0.0000
   2582 H          41.5236   54.1694   18.5315 H        80      M_A    0.0000
   2583 C          42.4926   55.1220   13.9772 C.3      81      M_A    0.0000
   2584 C          41.6984   55.4835   12.8674 C.3      81      M_A    0.0000
   2585 C          40.4869   54.7676   12.8708 C.2      81      M_A    0.0000
   2586 O          40.0583   54.1488   12.0316 O.2      81      M_A    0.0000
   2587 O          39.8752   54.9753   13.9597 O.3      81      M_A    0.0000
   2588 C          38.7242   54.3412   14.0561 C.3      81      M_A    0.0000
   2589 H          42.4198   54.1263   14.1352 H        81      M_A    0.0000
   2590 H          43.4650   55.2919   13.7603 H        81      M_A    0.0000
   2591 H          41.4311   56.4527   12.9915 H        81      M_A    0.0000
   2592 H          38.3353   54.5402   14.9629 H        81      M_A    0.0000
   2593 H          38.8613   53.3461   13.9792 H        81      M_A    0.0000
   2594 H          38.0822   54.6714   13.3535 H        81      M_A    0.0000
   2595 C          42.4268   55.4700   11.5999 C.3      82      M_A    0.0000
   2596 C          42.8863   56.7149   11.1182 C.3      82      M_A    0.0000
   2597 C          41.8023   57.5563   10.8065 C.2      82      M_A    0.0000
   2598 O          41.6125   58.0912    9.8325 O.2      82      M_A    0.0000
   2599 O          41.0712   57.7020   11.8298 O.3      82      M_A    0.0000
   2600 C          40.0236   58.4767   11.6331 C.3      82      M_A    0.0000
   2601 H          41.8362   55.0353   10.9044 H        82      M_A    0.0000
   2602 H          43.2139   54.8465   11.7156 H        82      M_A    0.0000
   2603 H          43.3649   57.1756   11.8829 H        82      M_A    0.0000
   2604 H          39.4911   58.5011   12.4868 H        82      M_A    0.0000
   2605 H          39.4391   58.1021   10.9030 H        82      M_A    0.0000
   2606 H          40.3178   59.4147   11.4128 H        82      M_A    0.0000
   2607 C          43.9038   56.5970   10.0751 C.3      83      M_A    0.0000
   2608 C          45.2511   56.6523   10.4931 C.3      83      M_A    0.0000
   2609 C          45.5252   57.8816   11.1208 C.2      83      M_A    0.0000
   2610 O          46.3513   58.6062   10.8693 O.2      83      M_A    0.0000
   2611 O          44.7352   58.0443   12.0967 O.3      83      M_A    0.0000
   2612 C          44.9156   59.1754   12.7482 C.3      83      M_A    0.0000
   2613 H          43.7328   57.3186    9.3884 H        83      M_A    0.0000
   2614 H          43.7392   55.7223    9.5963 H        83      M_A    0.0000
   2615 H          45.3703   55.9549   11.2181 H        83      M_A    0.0000
   2616 H          44.2231   59.2276   13.4768 H        83      M_A    0.0000
   2617 H          44.7900   59.9623   12.1317 H        83      M_A    0.0000
   2618 H          45.8288   59.1932   13.1731 H        83      M_A    0.0000
   2619 C          46.2007   56.2577    9.4539 C.3      84      M_A    0.0000
   2620 C          46.6857   54.9329    9.5067 C.3      84      M_A    0.0000
   2621 C          47.7675   54.8366   10.4015 C.2      84      M_A    0.0000
   2622 O          48.7903   54.4115   10.1913 O.2      84      M_A    0.0000
   2623 O          47.4074   55.2391   11.5466 O.3      84      M_A    0.0000
   2624 C          48.3598   55.1877   12.4557 C.3      84      M_A    0.0000
   2625 H          46.9777   56.9035    9.4787 H        84      M_A    0.0000
   2626 H          45.7483   56.4115    8.5633 H        84      M_A    0.0000
   2627 H          45.9558   54.3612    9.9147 H        84      M_A    0.0000
   2628 H          47.9888   55.5584   13.3149 H        84      M_A    0.0000
   2629 H          49.1453   55.7536   12.1770 H        84      M_A    0.0000
   2630 H          48.6417   54.2338   12.6145 H        84      M_A    0.0000
   2631 C          46.9123   54.3419    8.1889 C.3      85      M_A    0.0000
   2632 C          46.5140   52.9983    8.0185 C.3      85      M_A    0.0000
   2633 C          46.7825   52.2508    9.1802 C.2      85      M_A    0.0000
   2634 O          47.3658   51.2888    9.2522 O.2      85      M_A    0.0000
   2635 O          46.1969   52.7807   10.1697 O.3      85      M_A    0.0000
   2636 C          46.3927   52.1481   11.3089 C.3      85      M_A    0.0000
   2637 H          47.8946   54.4340    7.9695 H        85      M_A    0.0000
   2638 H          46.4285   54.9205    7.5160 H        85      M_A    0.0000
   2639 H          45.5050   52.9923    7.9297 H        85      M_A    0.0000
   2640 H          45.9202   52.6618   12.0342 H        85      M_A    0.0000
   2641 H          47.3750   52.1143   11.5301 H        85      M_A    0.0000
   2642 H          46.0011   51.2209   11.2667 H        85      M_A    0.0000
   2643 C          46.9892   52.4030    6.7707 C.3      86      M_A    0.0000
   2644 C          46.8633   51.0023    6.6470 C.3      86      M_A    0.0000
   2645 C          46.5777   50.4183    7.8950 C.2      86      M_A    0.0000
   2646 O          47.1338   49.5758    8.3968 O.2      86      M_A    0.0000
   2647 O          45.5240   50.9330    8.3724 O.3      86      M_A    0.0000
   2648 C          45.1764   50.4479    9.5471 C.3      86      M_A    0.0000
   2649 H          47.9565   52.6680    6.6461 H        86      M_A    0.0000
   2650 H          46.4860   52.8504    6.0169 H        86      M_A    0.0000
   2651 H          46.0439   50.8226    6.0792 H        86      M_A    0.0000
   2652 H          44.3550   50.9411    9.8557 H        86      M_A    0.0000
   2653 H          45.9097   50.5961   10.2218 H        86      M_A    0.0000
   2654 H          44.9513   49.4691    9.4694 H        86      M_A    0.0000
   2655 C          47.9593   50.3817    5.9047 C.3      87      M_A    0.0000
   2656 C          47.8048   50.2878    4.5045 C.3      87      M_A    0.0000
   2657 C          46.9969   49.1858    4.1679 C.2      87      M_A    0.0000
   2658 O          47.2437   48.3542    3.4480 O.2      87      M_A    0.0000
   2659 O          45.8759   49.2899    4.7470 O.3      87      M_A    0.0000
   2660 C          45.0479   48.2970    4.4921 C.3      87      M_A    0.0000
   2661 H          48.1160   49.4606    6.2902 H        87      M_A    0.0000
   2662 H          48.7960   50.9090    6.1128 H        87      M_A    0.0000
   2663 H          47.2793   51.1001    4.2045 H        87      M_A    0.0000
   2664 H          44.2059   48.4517    5.0215 H        87      M_A    0.0000
   2665 H          45.4493   47.4191    4.7806 H        87      M_A    0.0000
   2666 H          44.8116   48.2803    3.5130 H        87      M_A    0.0000
   2667 C          49.0659   50.3832    3.7711 C.3      88      M_A    0.0000
   2668 C          49.3781   49.3145    2.9030 C.3      88      M_A    0.0000
   2669 C          49.5106   48.1132    3.6238 C.2      88      M_A    0.0000
   2670 O          50.3844   47.4012    3.6074 O.2      88      M_A    0.0000
   2671 O          48.4441   47.8851    4.2668 O.3      88      M_A    0.0000
   2672 C          48.4747   46.7760    4.9776 C.3      88      M_A    0.0000
   2673 H          49.8109   50.5012    4.4438 H        88      M_A    0.0000
   2674 H          49.0385   51.2444    3.2427 H        88      M_A    0.0000
   2675 H          48.5765   49.1722    2.3004 H        88      M_A    0.0000
   2676 H          47.6030   46.7024    5.4754 H        88      M_A    0.0000
   2677 H          49.2243   46.8076    5.6499 H        88      M_A    0.0000
   2678 H          48.5666   45.9751    4.3735 H        88      M_A    0.0000
   2679 C          50.4732   49.6126    1.9816 C.3      89      M_A    0.0000
   2680 C          51.7575   49.1598    2.3540 C.3      89      M_A    0.0000
   2681 C          51.9445   47.8216    1.9606 C.2      89      M_A    0.0000
   2682 O          52.2680   46.9589    2.6101 O.2      89      M_A    0.0000
   2683 O          51.7662   47.7185    0.7114 O.3      89      M_A    0.0000
   2684 C          51.9188   46.4943    0.2485 C.3      89      M_A    0.0000
   2685 H          50.4962   50.6125    1.8361 H        89      M_A    0.0000
   2686 H          50.2261   49.2137    1.0864 H        89      M_A    0.0000
   2687 H          52.4316   49.6889    1.8140 H        89      M_A    0.0000
   2688 H          51.7232   46.5093   -0.7388 H        89      M_A    0.0000
   2689 H          51.2695   45.8649    0.6927 H        89      M_A    0.0000
   2690 H          52.8682   46.1850    0.3817 H        89      M_A    0.0000
   2691 C          52.0991   49.4541    3.7447 C.3      90      M_A    0.0000
   2692 C          53.3742   49.0398    4.1868 C.3      90      M_A    0.0000
   2693 C          53.4490   47.6354    4.2374 C.2      90      M_A    0.0000
   2694 O          53.7602   47.0005    5.1154 O.2      90      M_A    0.0000
   2695 O          53.1807   47.1555    3.0970 O.3      90      M_A    0.0000
   2696 C          53.2238   45.8395    3.0467 C.3      90      M_A    0.0000
   2697 H          51.3874   49.0456    4.3348 H        90      M_A    0.0000
   2698 H          52.0126   50.4536    3.8673 H        90      M_A    0.0000
   2699 H          54.0426   49.3129    3.4763 H        90      M_A    0.0000
   2700 H          52.9634   45.5559    2.1167 H        90      M_A    0.0000
   2701 H          52.5673   45.4392    3.6978 H        90      M_A    0.0000
   2702 H          54.1584   45.5121    3.2309 H        90      M_A    0.0000
   2703 C          53.8267   49.7319    5.3923 C.3      91      M_A    0.0000
   2704 C          55.2074   50.0122    5.4832 C.3      91      M_A    0.0000
   2705 C          55.9369   48.8345    5.7303 C.2      91      M_A    0.0000
   2706 O          56.6782   48.6531    6.5601 O.2      91      M_A    0.0000
   2707 O          55.6996   47.9898    4.8176 O.3      91      M_A    0.0000
   2708 C          56.3402   46.8479    4.9656 C.3      91      M_A    0.0000
   2709 H          53.5390   49.1862    6.1929 H        91      M_A    0.0000
   2710 H          53.3067   50.5965    5.4522 H        91      M_A    0.0000
   2711 H          55.5123   50.3230    4.5687 H        91      M_A    0.0000
   2712 H          56.0606   46.2359    4.2170 H        91      M_A    0.0000
   2713 H          56.0928   46.4147    5.8410 H        91      M_A    0.0000
   2714 H          57.3351   46.9937    4.9048 H        91      M_A    0.0000
   2715 C          55.5176   51.1345    6.3672 C.3      92      M_A    0.0000
   2716 C          56.8805   51.3492    6.6666 C.3      92      M_A    0.0000
   2717 C          57.0151   52.1641    7.8059 C.2      92      M_A    0.0000
   2718 O          57.6142   53.1146    7.8973 O.2      92      M_A    0.0000
   2719 O          56.4095   51.6313    8.7818 O.3      92      M_A    0.0000
   2720 C          56.4786   52.3272    9.8986 C.3      92      M_A    0.0000
   2721 H          54.9984   51.0096    7.2253 H        92      M_A    0.0000
   2722 H          55.1360   51.9660    5.9377 H        92      M_A    0.0000
   2723 H          57.2741   50.4553    6.9351 H        92      M_A    0.0000
   2724 H          55.9418   51.8434   10.5993 H        92      M_A    0.0000
   2725 H          56.0813   53.2439    9.7691 H        92      M_A    0.0000
   2726 H          57.4332   52.3899   10.2140 H        92      M_A    0.0000
   2727 C          57.6741   51.7595    5.5095 C.3      93      M_A    0.0000
   2728 C          58.7620   50.9307    5.1594 C.2      93      M_A    0.0000
   2729 C          58.3279   49.6106    4.9374 C.2      93      M_A    0.0000
   2730 O          58.7294   48.6716    5.4148 O.2      93      M_A    0.0000
   2731 O          57.4374   49.6032    4.0375 O.3      93      M_A    0.0000
   2732 C          56.9661   48.4041    3.7611 C.3      93      M_A    0.0000
   2733 H          58.0050   52.7001    5.6748 H        93      M_A    0.0000
   2734 H          57.0417   51.8285    4.7241 H        93      M_A    0.0000
   2735 H          59.1058   51.2486    4.2612 H        93      M_A    0.0000
   2736 H          56.2455   48.5067    3.0659 H        93      M_A    0.0000
   2737 H          56.5596   47.9861    4.5826 H        93      M_A    0.0000
   2738 H          57.6944   47.8199    3.3828 H        93      M_A    0.0000
   2739 C          62.6249   49.2576    3.9535 C.2      94      M_A    0.0000
   2740 C          63.4915   48.0893    3.3409 C.3      94      M_A    0.0000
   2741 C          63.4483   48.1332    1.7688 C.2      94      M_A    0.0000
   2742 O          63.1403   47.1928    0.9884 O.2      94      M_A    0.0000
   2743 O          63.8990   49.3968    1.3177 O.3      94      M_A    0.0000
   2744 C          63.8957   49.5447   -0.1480 C.3      94      M_A    0.0000
   2745 H          61.5281   48.9993    3.8686 H        94      M_A    0.0000
   2746 H          62.8337   49.3345    5.0614 H        94      M_A    0.0000
   2747 H          64.5720   48.2947    3.6107 H        94      M_A    0.0000
   2748 H          64.2313   50.5907   -0.3918 H        94      M_A    0.0000
   2749 H          62.8567   49.3988   -0.5576 H        94      M_A    0.0000
   2750 H          64.6184   48.8191   -0.6166 H        94      M_A    0.0000
   2751 C          63.1806   46.6291    4.0061 C.3      95      M_A    0.0000
   2752 C          62.9428   45.4302    3.0075 C.3      95      M_A    0.0000
   2753 C          62.1021   45.9029    1.7645 C.2      95      M_A    0.0000
   2754 O          61.0394   45.3889    1.3231 O.2      95      M_A    0.0000
   2755 O          62.7647   46.9784    1.1259 O.3      95      M_A    0.0000
   2756 C          62.0564   47.5005   -0.0555 C.3      95      M_A    0.0000
   2757 H          62.2848   46.7382    4.6861 H        95      M_A    0.0000
   2758 H          64.0489   46.3812    4.6854 H        95      M_A    0.0000
   2759 H          63.9523   45.1385    2.5853 H        95      M_A    0.0000
   2760 H          62.6464   48.3703   -0.4574 H        95      M_A    0.0000
   2761 H          61.0300   47.8668    0.2290 H        95      M_A    0.0000
   2762 H          61.9942   46.7106   -0.8558 H        95      M_A    0.0000
   2763 C          62.4033   44.0710    3.7374 C.3      96      M_A    0.0000
   2764 C          61.2219   43.3039    3.0254 C.3      96      M_A    0.0000
   2765 C          60.0178   44.2772    2.7465 C.2      96      M_A    0.0000
   2766 O          58.8134   44.1147    3.0802 O.2      96      M_A    0.0000
   2767 O          60.4635   45.3704    1.9656 O.3      96      M_A    0.0000
   2768 C          59.4084   46.3482    1.6481 C.3      96      M_A    0.0000
   2769 H          62.0993   44.3378    4.7925 H        96      M_A    0.0000
   2770 H          63.2882   43.3763    3.8431 H        96      M_A    0.0000
   2771 H          61.5915   42.9930    2.0011 H        96      M_A    0.0000
   2772 H          59.8778   47.1874    1.0635 H        96      M_A    0.0000
   2773 H          58.9677   46.7747    2.5928 H        96      M_A    0.0000
   2774 H          58.6110   45.8714    1.0116 H        96      M_A    0.0000
   2775 C          60.8254   41.8961    3.7549 C.3      97      M_A    0.0000
   2776 C          59.3149   41.4483    3.6604 C.3      97      M_A    0.0000
   2777 C          58.7958   41.5593    2.1793 C.2      97      M_A    0.0000
   2778 O          57.7721   42.1729    1.7745 O.2      97      M_A    0.0000
   2779 O          59.6162   40.7787    1.3302 O.3      97      M_A    0.0000
   2780 C          59.2160   40.8152   -0.0870 C.3      97      M_A    0.0000
   2781 H          61.1317   41.9663    4.8403 H        97      M_A    0.0000
   2782 H          61.4808   41.0925    3.3061 H        97      M_A    0.0000
   2783 H          59.2758   40.3428    3.9031 H        97      M_A    0.0000
   2784 H          59.9533   40.1980   -0.6717 H        97      M_A    0.0000
   2785 H          59.2448   41.8708   -0.4788 H        97      M_A    0.0000
   2786 H          58.1915   40.3658   -0.2166 H        97      M_A    0.0000
   2787 C          58.3572   42.1425    4.7882 C.3      98      M_A    0.0000
   2788 C          57.4259   41.1774    5.6204 C.3      98      M_A    0.0000
   2789 C          58.2775   40.0594    6.3274 C.2      98      M_A    0.0000
   2790 O          58.1038   38.8129    6.2614 O.2      98      M_A    0.0000
   2791 O          59.2588   40.6612    7.1511 O.3      98      M_A    0.0000
   2792 C          60.1169   39.6971    7.8611 C.3      98      M_A    0.0000
   2793 H          57.7265   42.9279    4.2761 H        98      M_A    0.0000
   2794 H          59.0325   42.7093    5.4951 H        98      M_A    0.0000
   2795 H          56.9804   41.7856    6.4654 H        98      M_A    0.0000
   2796 H          60.8793   40.2791    8.4496 H        98      M_A    0.0000
   2797 H          60.6604   39.0370    7.1279 H        98      M_A    0.0000
   2798 H          59.5046   39.0822    8.5790 H        98      M_A    0.0000
   2799 C          56.1291   40.6406    4.7830 C.3      99      M_A    0.0000
   2800 C          55.1592   39.6484    5.5353 C.3      99      M_A    0.0000
   2801 C          55.8613   38.2605    5.7722 C.2      99      M_A    0.0000
   2802 O          55.4266   37.1219    5.4513 O.2      99      M_A    0.0000
   2803 O          57.0607   38.4543    6.4983 O.3      99      M_A    0.0000
   2804 C          57.8012   37.2108    6.7729 C.3      99      M_A    0.0000
   2805 H          56.5024   40.1565    3.8326 H        99      M_A    0.0000
   2806 H          55.5469   41.5506    4.4516 H        99      M_A    0.0000
   2807 H          54.9846   40.0697    6.5719 H        99      M_A    0.0000
   2808 H          58.7487   37.4839    7.3151 H        99      M_A    0.0000
   2809 H          58.0771   36.6944    5.8107 H        99      M_A    0.0000
   2810 H          57.1940   36.5311    7.4345 H        99      M_A    0.0000
   2811 C          53.6661   39.5703    4.8753 C.3     100      M_A    0.0000
   2812 C          52.5708   38.7768    5.6888 C.3     100      M_A    0.0000
   2813 C          53.1339   37.3876    6.1666 C.2     100      M_A    0.0000
   2814 O          52.6211   36.2518    5.9784 O.2     100      M_A    0.0000
   2815 O          54.3010   37.5908    6.9413 O.3     100      M_A    0.0000
   2816 C          54.9127   36.3465    7.4390 C.3     100      M_A    0.0000
   2817 H          53.7639   39.1267    3.8406 H       100      M_A    0.0000
   2818 H          53.3158   40.6330    4.7179 H       100      M_A    0.0000
   2819 H          52.3730   39.3567    6.6411 H       100      M_A    0.0000
   2820 H          55.8469   36.6207    8.0031 H       100      M_A    0.0000
   2821 H          55.1984   35.6757    6.5804 H       100      M_A    0.0000
   2822 H          54.2106   35.8197    8.1447 H       100      M_A    0.0000
   2823 C          51.1179   38.7202    4.9423 C.3     101      M_A    0.0000
   2824 C          49.8426   38.6959    5.8719 C.3     101      M_A    0.0000
   2825 C          50.2477   38.3852    7.3601 C.2     101      M_A    0.0000
   2826 O          49.7803   37.4819    8.1044 O.2     101      M_A    0.0000
   2827 O          51.1884   39.3446    7.8051 O.3     101      M_A    0.0000
   2828 C          51.6378   39.1424    9.1934 C.3     101      M_A    0.0000
   2829 H          51.1084   37.8168    4.2637 H       101      M_A    0.0000
   2830 H          51.0613   39.6160    4.2559 H       101      M_A    0.0000
   2831 H          49.4231   39.7476    5.8953 H       101      M_A    0.0000
   2832 H          52.4065   39.9303    9.4273 H       101      M_A    0.0000
   2833 H          52.1178   38.1302    9.3099 H       101      M_A    0.0000
   2834 H          50.7742   39.2628    9.9062 H       101      M_A    0.0000
   2835 C          48.6204   37.7877    5.2783 C.3     102      M_A    0.0000
   2836 C          47.3982   37.5250    6.2419 C.3     102      M_A    0.0000
   2837 C          47.8151   37.7563    7.7411 C.2     102      M_A    0.0000
   2838 O          47.6744   36.9549    8.7037 O.2     102      M_A    0.0000
   2839 O          48.3168   39.0708    7.8959 O.3     102      M_A    0.0000
   2840 C          48.7401   39.3915    9.2699 C.3     102      M_A    0.0000
   2841 H          49.0518   36.8006    4.9372 H       102      M_A    0.0000
   2842 H          48.2518   38.2981    4.3400 H       102      M_A    0.0000
   2843 H          46.6226   38.3217    6.0266 H       102      M_A    0.0000
   2844 H          49.1550   40.4376    9.2697 H       102      M_A    0.0000
   2845 H          49.5506   38.6865    9.6085 H       102      M_A    0.0000
   2846 H          47.8584   39.3568    9.9697 H       102      M_A    0.0000
   2847 C          46.6234   36.1173    5.9433 C.3     103      M_A    0.0000
   2848 C          45.0597   36.1082    6.1574 C.3     103      M_A    0.0000
   2849 C          44.6322   37.2366    7.1668 C.2     103      M_A    0.0000
   2850 O          43.9382   37.1029    8.2103 O.2     103      M_A    0.0000
   2851 O          45.0771   38.4926    6.6893 O.3     103      M_A    0.0000
   2852 C          44.7287   39.6236    7.5666 C.3     103      M_A    0.0000
   2853 H          47.0972   35.3149    6.5825 H       103      M_A    0.0000
   2854 H          46.8546   35.8301    4.8752 H       103      M_A    0.0000
   2855 H          44.5834   36.3997    5.1722 H       103      M_A    0.0000
   2856 H          45.1615   40.5590    7.1149 H       103      M_A    0.0000
   2857 H          45.1762   39.4820    8.5905 H       103      M_A    0.0000
   2858 H          43.6104   39.7412    7.6289 H       103      M_A    0.0000
   2859 C          44.4536   34.6237    6.4742 C.3     104      M_A    0.0000
   2860 C          43.6630   33.9155    5.3062 C.3     104      M_A    0.0000
   2861 C          42.3570   34.7192    4.9543 C.2     104      M_A    0.0000
   2862 O          41.1793   34.2737    4.9002 O.2     104      M_A    0.0000
   2863 O          42.6977   36.0492    4.6102 O.3     104      M_A    0.0000
   2864 C          41.5405   36.8925    4.2638 C.3     104      M_A    0.0000
   2865 H          43.7903   34.7040    7.3855 H       104      M_A    0.0000
   2866 H          45.3207   33.9700    6.7868 H       104      M_A    0.0000
   2867 H          44.3067   33.9799    4.3767 H       104      M_A    0.0000
   2868 H          41.9196   37.9298    4.0478 H       104      M_A    0.0000
   2869 H          40.8199   36.9489    5.1277 H       104      M_A    0.0000
   2870 H          41.0311   36.4985    3.3399 H       104      M_A    0.0000
   2871 C          43.4524   32.3118    5.5402 C.3     105      M_A    0.0000
   2872 C          44.2727   31.3436    4.6017 C.3     105      M_A    0.0000
   2873 C          43.4979   29.9911    4.3881 C.2     105      M_A    0.0000
   2874 O          43.9348   28.8242    4.5780 O.2     105      M_A    0.0000
   2875 O          42.2154   30.2594    3.8526 O.3     105      M_A    0.0000
   2876 C          41.4022   29.0542    3.6155 C.3     105      M_A    0.0000
   2877 H          42.3493   32.0862    5.4445 H       105      M_A    0.0000
   2878 H          43.7139   32.0955    6.6180 H       105      M_A    0.0000
   2879 H          44.3139   31.8233    3.5767 H       105      M_A    0.0000
   2880 H          40.3975   29.3839    3.2304 H       105      M_A    0.0000
   2881 H          41.2472   28.4867    4.5760 H       105      M_A    0.0000
   2882 H          41.8870   28.4014    2.8363 H       105      M_A    0.0000
   2883 C          45.8404   31.1873    5.0367 C.3     106      M_A    0.0000
   2884 C          46.8685   30.8652    3.8833 C.2     106      M_A    0.0000
   2885 C          46.7895   31.9542    2.7506 C.2     106      M_A    0.0000
   2886 O          46.6189   31.7600    1.5171 O.2     106      M_A    0.0000
   2887 O          47.0271   33.2340    3.3067 O.3     106      M_A    0.0000
   2888 C          46.9732   34.3317    2.3258 C.3     106      M_A    0.0000
   2889 H          45.9042   30.3891    5.8339 H       106      M_A    0.0000
   2890 H          46.1419   32.1498    5.5462 H       106      M_A    0.0000
   2891 H          47.9081   30.9706    4.3200 H       106      M_A    0.0000
   2892 H          47.1352   35.2987    2.8781 H       106      M_A    0.0000
   2893 H          45.9626   34.3693    1.8299 H       106      M_A    0.0000
   2894 H          47.7923   34.2150    1.5617 H       106      M_A    0.0000
   2895 C          44.1279   27.8087    8.4996 C.2     107      M_A    0.0000
   2896 C          44.9923   26.7827    9.1174 C.3     107      M_A    0.0000
   2897 C          45.7942   26.0948    8.0923 C.2     107      M_A    0.0000
   2898 O          45.8723   24.9323    7.9092 O.2     107      M_A    0.0000
   2899 O          46.5099   26.9833    7.4194 O.3     107      M_A    0.0000
   2900 C          47.2972   26.4343    6.4300 C.3     107      M_A    0.0000
   2901 H          43.2821   27.3447    8.0667 H       107      M_A    0.0000
   2902 H          43.7478   28.4444    9.2542 H       107      M_A    0.0000
   2903 H          45.6981   27.2894    9.7242 H       107      M_A    0.0000
   2904 H          47.7924   27.2210    5.9353 H       107      M_A    0.0000
   2905 H          46.7032   25.9199    5.7276 H       107      M_A    0.0000
   2906 H          48.0218   25.7949    6.8505 H       107      M_A    0.0000
   2907 C          44.2499   25.8643   10.0893 C.3     108      M_A    0.0000
   2908 C          45.0320   25.3202   11.2179 C.3     108      M_A    0.0000
   2909 C          44.2440   24.3236   11.9619 C.2     108      M_A    0.0000
   2910 O          44.0266   24.3071   13.1209 O.2     108      M_A    0.0000
   2911 O          43.8561   23.3612   11.1387 O.3     108      M_A    0.0000
   2912 C          43.1058   22.3757   11.7439 C.3     108      M_A    0.0000
   2913 H          43.8313   25.0687    9.5328 H       108      M_A    0.0000
   2914 H          43.4270   26.4104   10.4669 H       108      M_A    0.0000
   2915 H          45.8433   24.7770   10.8060 H       108      M_A    0.0000
   2916 H          42.8191   21.6848   11.0027 H       108      M_A    0.0000
   2917 H          42.2347   22.7853   12.1732 H       108      M_A    0.0000
   2918 H          43.6806   21.8700   12.4682 H       108      M_A    0.0000
   2919 C          45.6965   26.3981   12.0755 C.3     109      M_A    0.0000
   2920 C          46.9857   26.0458   12.7042 C.3     109      M_A    0.0000
   2921 C          46.7660   25.3181   13.9649 C.2     109      M_A    0.0000
   2922 O          47.2097   25.5793   15.0259 O.2     109      M_A    0.0000
   2923 O          46.0349   24.2384   13.7318 O.3     109      M_A    0.0000
   2924 C          45.7715   23.4872   14.8572 C.3     109      M_A    0.0000
   2925 H          45.0080   26.6933   12.8218 H       109      M_A    0.0000
   2926 H          45.8297   27.2476   11.4601 H       109      M_A    0.0000
   2927 H          47.4677   25.3505   12.0660 H       109      M_A    0.0000
   2928 H          45.1586   22.6797   14.5722 H       109      M_A    0.0000
   2929 H          45.2541   24.0624   15.5731 H       109      M_A    0.0000
   2930 H          46.6665   23.1023   15.2590 H       109      M_A    0.0000
   2931 C          47.9632   27.2189   12.7903 C.3     110      M_A    0.0000
   2932 C          49.1690   27.1427   11.9409 C.3     110      M_A    0.0000
   2933 C          50.2183   26.3479   12.6002 C.2     110      M_A    0.0000
   2934 O          51.3342   26.6699   12.8050 O.2     110      M_A    0.0000
   2935 O          49.7504   25.1404   12.8786 O.3     110      M_A    0.0000
   2936 C          50.6628   24.3169   13.5029 C.3     110      M_A    0.0000
   2937 H          48.2497   27.3326   13.8018 H       110      M_A    0.0000
   2938 H          47.4215   28.0942   12.5486 H       110      M_A    0.0000
   2939 H          48.9095   26.5904   11.0745 H       110      M_A    0.0000
   2940 H          50.1845   23.4024   13.7122 H       110      M_A    0.0000
   2941 H          50.9827   24.7421   14.4128 H       110      M_A    0.0000
   2942 H          51.4817   24.1283   12.8670 H       110      M_A    0.0000
   2943 C          49.6218   28.5002   11.4010 C.3     111      M_A    0.0000
   2944 C          50.1587   28.5226   10.0253 C.3     111      M_A    0.0000
   2945 C          50.5771   27.1736    9.6101 C.2     111      M_A    0.0000
   2946 O          51.6280   26.8532    9.1813 O.2     111      M_A    0.0000
   2947 O          49.5522   26.3407    9.7117 O.3     111      M_A    0.0000
   2948 C          49.8457   25.0446    9.3454 C.3     111      M_A    0.0000
   2949 H          50.3414   28.8942   12.0681 H       111      M_A    0.0000
   2950 H          48.7915   29.1521   11.4616 H       111      M_A    0.0000
   2951 H          49.3574   28.7729    9.3785 H       111      M_A    0.0000
   2952 H          48.9823   24.4611    9.4967 H       111      M_A    0.0000
   2953 H          50.6200   24.6569    9.9463 H       111      M_A    0.0000
   2954 H          50.1039   25.0016    8.3246 H       111      M_A    0.0000
   2955 C          51.1911   29.6264    9.7912 C.3     112      M_A    0.0000
   2956 C          51.6404   29.8315    8.3993 C.3     112      M_A    0.0000
   2957 C          50.5706   29.4777    7.4518 C.2     112      M_A    0.0000
   2958 O          50.6425   28.7319    6.5410 O.2     112      M_A    0.0000
   2959 O          49.4886   30.1941    7.7172 O.3     112      M_A    0.0000
   2960 C          48.4247   29.9320    6.8808 C.3     112      M_A    0.0000
   2961 H          52.0273   29.4284   10.4074 H       112      M_A    0.0000
   2962 H          50.7741   30.5259   10.1589 H       112      M_A    0.0000
   2963 H          51.7913   30.8721    8.2672 H       112      M_A    0.0000
   2964 H          47.6108   30.5207    7.1967 H       112      M_A    0.0000
   2965 H          48.1467   28.9172    6.9429 H       112      M_A    0.0000
   2966 H          48.6640   30.1967    5.8891 H       112      M_A    0.0000
   2967 C          53.0065   29.2116    8.1015 C.3     113      M_A    0.0000
   2968 C          53.9182   29.9941    7.2425 C.3     113      M_A    0.0000
   2969 C          53.2011   30.5198    6.0691 C.2     113      M_A    0.0000
   2970 O          53.4995   30.3932    4.9352 O.2     113      M_A    0.0000
   2971 O          52.1727   31.2521    6.4696 O.3     113      M_A    0.0000
   2972 C          51.4330   31.7898    5.4381 C.3     113      M_A    0.0000
   2973 H          52.8468   28.2586    7.6723 H       113      M_A    0.0000
   2974 H          53.4751   29.0291    9.0317 H       113      M_A    0.0000
   2975 H          54.2108   30.8514    7.7925 H       113      M_A    0.0000
   2976 H          50.6251   32.3181    5.8590 H       113      M_A    0.0000
   2977 H          51.0477   31.0263    4.8221 H       113      M_A    0.0000
   2978 H          52.0191   32.4645    4.8795 H       113      M_A    0.0000
   2979 C          55.2332   29.2762    6.9354 C.3     114      M_A    0.0000
   2980 C          56.4744   30.0550    7.1209 C.3     114      M_A    0.0000
   2981 C          56.1997   31.4983    7.0267 C.2     114      M_A    0.0000
   2982 O          56.7364   32.2823    6.3279 O.2     114      M_A    0.0000
   2983 O          55.2838   31.8346    7.9225 O.3     114      M_A    0.0000
   2984 C          54.9551   33.1732    7.9115 C.3     114      M_A    0.0000
   2985 H          55.1859   28.9174    5.9419 H       114      M_A    0.0000
   2986 H          55.2679   28.4145    7.5471 H       114      M_A    0.0000
   2987 H          56.7965   29.9012    8.1187 H       114      M_A    0.0000
   2988 H          54.1993   33.3278    8.6282 H       114      M_A    0.0000
   2989 H          54.5817   33.4546    6.9668 H       114      M_A    0.0000
   2990 H          55.7910   33.7583    8.1754 H       114      M_A    0.0000
   2991 C          57.6410   29.5562    6.2669 C.3     115      M_A    0.0000
   2992 C          58.8195   29.0372    6.9902 C.3     115      M_A    0.0000
   2993 C          59.6816   30.1435    7.4379 C.2     115      M_A    0.0000
   2994 O          60.8362   30.2745    7.2364 O.2     115      M_A    0.0000
   2995 O          58.9803   30.9730    8.1959 O.3     115      M_A    0.0000
   2996 C          59.7029   32.0491    8.6650 C.3     115      M_A    0.0000
   2997 H          57.9375   30.3433    5.6261 H       115      M_A    0.0000
   2998 H          57.2614   28.8007    5.6319 H       115      M_A    0.0000
   2999 H          58.4679   28.5848    7.8816 H       115      M_A    0.0000
   3000 H          59.0504   32.6609    9.2206 H       115      M_A    0.0000
   3001 H          60.0880   32.6139    7.8627 H       115      M_A    0.0000
   3002 H          60.4771   31.7218    9.3008 H       115      M_A    0.0000
   3003 C          59.5393   27.9073    6.2524 C.3     116      M_A    0.0000
   3004 C          60.9948   27.7903    6.4744 C.3     116      M_A    0.0000
   3005 C          61.6523   29.0960    6.3010 C.2     116      M_A    0.0000
   3006 O          62.5673   29.3464    5.6003 O.2     116      M_A    0.0000
   3007 O          61.1104   29.9783    7.1270 O.3     116      M_A    0.0000
   3008 C          61.6599   31.2394    7.0381 C.3     116      M_A    0.0000
   3009 H          59.3467   28.0167    5.2185 H       116      M_A    0.0000
   3010 H          59.0700   27.0027    6.5345 H       116      M_A    0.0000
   3011 H          61.1389   27.5434    7.4948 H       116      M_A    0.0000
   3012 H          61.1386   31.8682    7.7028 H       116      M_A    0.0000
   3013 H          61.5512   31.6221    6.0621 H       116      M_A    0.0000
   3014 H          62.6742   31.2183    7.3235 H       116      M_A    0.0000
   3015 C          61.6369   26.6305    5.7116 C.3     117      M_A    0.0000
   3016 C          63.0072   26.2505    6.1108 C.3     117      M_A    0.0000
   3017 C          63.9692   27.2943    5.7202 C.2     117      M_A    0.0000
   3018 O          64.9529   27.1558    5.0847 O.2     117      M_A    0.0000
   3019 O          63.6143   28.4494    6.2626 O.3     117      M_A    0.0000
   3020 C          64.4565   29.4957    5.9521 C.3     117      M_A    0.0000
   3021 H          61.6215   26.8680    4.6814 H       117      M_A    0.0000
   3022 H          60.9981   25.7949    5.8199 H       117      M_A    0.0000
   3023 H          63.0338   26.2349    7.1701 H       117      M_A    0.0000
   3024 H          64.0688   30.3675    6.3976 H       117      M_A    0.0000
   3025 H          64.4948   29.6425    4.9091 H       117      M_A    0.0000
   3026 H          65.4192   29.3199    6.3432 H       117      M_A    0.0000
   3027 C          63.3887   24.8267    5.7031 C.3     118      M_A    0.0000
   3028 C          64.8145   24.4607    5.8231 C.3     118      M_A    0.0000
   3029 C          65.6506   25.3593    5.0102 C.2     118      M_A    0.0000
   3030 O          66.4446   25.0510    4.1944 O.2     118      M_A    0.0000
   3031 O          65.4443   26.6137    5.3819 O.3     118      M_A    0.0000
   3032 C          66.1843   27.5363    4.6738 C.3     118      M_A    0.0000
   3033 H          63.0668   24.6740    4.7075 H       118      M_A    0.0000
   3034 H          62.8090   24.1679    6.2930 H       118      M_A    0.0000
   3035 H          65.1043   24.6475    6.8252 H       118      M_A    0.0000
   3036 H          65.9215   28.4962    5.0179 H       118      M_A    0.0000
   3037 H          65.9617   27.4779    3.6452 H       118      M_A    0.0000
   3038 H          67.2138   27.3898    4.8451 H       118      M_A    0.0000
   3039 C          65.0798   22.9674    5.6261 C.3     119      M_A    0.0000
   3040 C          66.2538   22.6035    4.8071 C.3     119      M_A    0.0000
   3041 C          66.3126   23.4292    3.5897 C.2     119      M_A    0.0000
   3042 O          66.3953   23.0519    2.4754 O.2     119      M_A    0.0000
   3043 O          66.3394   24.7105    3.9241 O.3     119      M_A    0.0000
   3044 C          66.3928   25.5691    2.8469 C.3     119      M_A    0.0000
   3045 H          64.2101   22.5326    5.2106 H       119      M_A    0.0000
   3046 H          65.1796   22.5392    6.5878 H       119      M_A    0.0000
   3047 H          67.1180   22.8680    5.3605 H       119      M_A    0.0000
   3048 H          66.3728   26.5550    3.2164 H       119      M_A    0.0000
   3049 H          65.5559   25.4301    2.2214 H       119      M_A    0.0000
   3050 H          67.2900   25.4306    2.3117 H       119      M_A    0.0000
   3051 C          66.3970   21.0977    4.5812 C.3     120      M_A    0.0000
   3052 C          66.6773   20.6568    3.1998 C.3     120      M_A    0.0000
   3053 C          65.7049   21.2414    2.2616 C.2     120      M_A    0.0000
   3054 O          65.0354   20.6673    1.4787 O.2     120      M_A    0.0000
   3055 O          65.7339   22.5620    2.3590 O.3     120      M_A    0.0000
   3056 C          64.8518   23.2048    1.5170 C.3     120      M_A    0.0000
   3057 H          65.5156   20.6291    4.9302 H       120      M_A    0.0000
   3058 H          67.1698   20.7592    5.2186 H       120      M_A    0.0000
   3059 H          67.6118   21.0711    2.9205 H       120      M_A    0.0000
   3060 H          64.9264   24.2396    1.6976 H       120      M_A    0.0000
   3061 H          63.8623   22.9016    1.7167 H       120      M_A    0.0000
   3062 H          65.1059   23.0217    0.5108 H       120      M_A    0.0000
   3063 C          66.8809   19.1465    3.0708 C.3     121      M_A    0.0000
   3064 C          66.0124   18.4388    2.1083 C.3     121      M_A    0.0000
   3065 C          64.6156   18.4382    2.5735 C.2     121      M_A    0.0000
   3066 O          63.9087   17.5037    2.7068 O.2     121      M_A    0.0000
   3067 O          64.2098   19.6853    2.7591 O.3     121      M_A    0.0000
   3068 C          62.9078   19.7905    3.1994 C.3     121      M_A    0.0000
   3069 H          66.7678   18.7179    4.0308 H       121      M_A    0.0000
   3070 H          67.8929   18.9900    2.8074 H       121      M_A    0.0000
   3071 H          66.0040   19.0078    1.2143 H       121      M_A    0.0000
   3072 H          62.6975   20.8113    3.3500 H       121      M_A    0.0000
   3073 H          62.7856   19.2858    4.1166 H       121      M_A    0.0000
   3074 H          62.2434   19.4159    2.4722 H       121      M_A    0.0000
   3075 C          66.5583   17.0751    1.6822 C.3     122      M_A    0.0000
   3076 C          65.5873   15.9648    1.6068 C.3     122      M_A    0.0000
   3077 C          64.5833   16.2243    0.5618 C.2     122      M_A    0.0000
   3078 O          63.4100   16.2093    0.6805 O.2     122      M_A    0.0000
   3079 O          65.1911   16.4100   -0.6004 O.3     122      M_A    0.0000
   3080 C          64.3311   16.6635   -1.6475 C.3     122      M_A    0.0000
   3081 H          67.3421   16.8154    2.3428 H       122      M_A    0.0000
   3082 H          67.0145   17.2038    0.7371 H       122      M_A    0.0000
   3083 H          66.1143   15.1075    1.2747 H       122      M_A    0.0000
   3084 H          64.9110   16.8317   -2.5102 H       122      M_A    0.0000
   3085 H          63.7597   17.5282   -1.4557 H       122      M_A    0.0000
   3086 H          63.7082   15.8312   -1.8202 H       122      M_A    0.0000
   3087 C          65.0213   15.5558    2.9675 C.3     123      M_A    0.0000
   3088 C          65.0562   14.1163    3.2961 C.3     123      M_A    0.0000
   3089 C          66.4227   13.6983    3.6501 C.2     123      M_A    0.0000
   3090 O          67.0406   12.8096    3.1818 O.2     123      M_A    0.0000
   3091 O          66.8627   14.4321    4.6612 O.3     123      M_A    0.0000
   3092 C          68.1417   14.1163    5.0670 C.3     123      M_A    0.0000
   3093 H          64.0263   15.9084    3.0275 H       123      M_A    0.0000
   3094 H          65.5580   16.0941    3.7026 H       123      M_A    0.0000
   3095 H          64.4896   13.9815    4.1814 H       123      M_A    0.0000
   3096 H          68.4079   14.7757    5.8437 H       123      M_A    0.0000
   3097 H          68.8234   14.2431    4.2733 H       123      M_A    0.0000
   3098 H          68.1756   13.1307    5.4387 H       123      M_A    0.0000
   3099 C          64.3530   13.2371    2.2609 C.3     124      M_A    0.0000
   3100 C          64.6755   11.7960    2.2843 C.3     124      M_A    0.0000
   3101 C          64.3276   11.2079    3.5883 C.2     124      M_A    0.0000
   3102 O          65.0303   10.5808    4.2982 O.2     124      M_A    0.0000
   3103 O          63.0441   11.4165    3.8403 O.3     124      M_A    0.0000
   3104 C          62.6198   10.9022    5.0469 C.3     124      M_A    0.0000
   3105 H          64.5609   13.6307    1.3018 H       124      M_A    0.0000
   3106 H          63.3125   13.3635    2.4002 H       124      M_A    0.0000
   3107 H          64.0350   11.3186    1.5880 H       124      M_A    0.0000
   3108 H          61.6039   11.1519    5.1669 H       124      M_A    0.0000
   3109 H          63.1644   11.3281    5.8424 H       124      M_A    0.0000
   3110 H          62.7087    9.8521    5.0494 H       124      M_A    0.0000
   3111 C          66.0841   11.4778    1.7805 C.3     125      M_A    0.0000
   3112 C          66.2186   11.1502    0.3466 C.3     125      M_A    0.0000
   3113 C          65.2632   11.9319   -0.4556 C.2     125      M_A    0.0000
   3114 O          64.4801   11.5185   -1.2346 O.2     125      M_A    0.0000
   3115 O          65.4555   13.2243   -0.2386 O.3     125      M_A    0.0000
   3116 C          64.6028   14.0437   -0.9469 C.3     125      M_A    0.0000
   3117 H          66.4681   10.6829    2.3626 H       125      M_A    0.0000
   3118 H          66.6915   12.3136    2.0054 H       125      M_A    0.0000
   3119 H          67.1754   11.4833    0.0359 H       125      M_A    0.0000
   3120 H          64.8116   15.0400   -0.6774 H       125      M_A    0.0000
   3121 H          63.5995   13.8346   -0.7007 H       125      M_A    0.0000
   3122 H          64.7666   13.9359   -1.9824 H       125      M_A    0.0000
   3123 C          66.2321    9.6474    0.0628 C.3     126      M_A    0.0000
   3124 C          65.6760    9.2112   -1.2340 C.3     126      M_A    0.0000
   3125 C          64.9640    7.9308   -1.0885 C.2     126      M_A    0.0000
   3126 O          65.1333    6.9455   -1.7141 O.2     126      M_A    0.0000
   3127 O          64.0124    8.0542   -0.1755 O.3     126      M_A    0.0000
   3128 C          63.2866    6.9015    0.0357 C.3     126      M_A    0.0000
   3129 H          65.7191    9.1612    0.8493 H       126      M_A    0.0000
   3130 H          67.2365    9.3254    0.1373 H       126      M_A    0.0000
   3131 H          64.9292    9.9113   -1.5080 H       126      M_A    0.0000
   3132 H          62.5870    7.0937    0.7990 H       126      M_A    0.0000
   3133 H          63.9185    6.1192    0.3515 H       126      M_A    0.0000
   3134 H          62.7626    6.6328   -0.8383 H       126      M_A    0.0000
   3135 C          66.6859    9.2689   -2.3812 C.3     127      M_A    0.0000
   3136 C          66.3083    8.5834   -3.6338 C.3     127      M_A    0.0000
   3137 C          64.8919    8.8278   -3.9519 C.2     127      M_A    0.0000
   3138 O          64.0616    8.0207   -4.1757 O.2     127      M_A    0.0000
   3139 O          64.6748   10.1318   -4.0344 O.3     127      M_A    0.0000
   3140 C          63.3697   10.4645   -4.3281 C.3     127      M_A    0.0000
   3141 H          67.6042    8.8812   -2.0286 H       127      M_A    0.0000
   3142 H          66.8683   10.2904   -2.5845 H       127      M_A    0.0000
   3143 H          66.8499    9.0433   -4.4201 H       127      M_A    0.0000
   3144 H          63.2960   11.5150   -4.3341 H       127      M_A    0.0000
   3145 H          62.7173   10.0884   -3.5906 H       127      M_A    0.0000
   3146 H          63.1057   10.1052   -5.2830 H       127      M_A    0.0000
   3147 C          66.7441    7.1182   -3.6826 C.3     128      M_A    0.0000
   3148 C          66.0109    6.2377   -4.6145 C.3     128      M_A    0.0000
   3149 C          66.6031    6.3000   -5.9609 C.2     128      M_A    0.0000
   3150 O          66.0471    6.5331   -6.9745 O.2     128      M_A    0.0000
   3151 O          67.8844    5.9704   -5.8972 O.3     128      M_A    0.0000
   3152 C          68.5314    6.0012   -7.1141 C.3     128      M_A    0.0000
   3153 H          66.6827    6.7257   -2.7027 H       128      M_A    0.0000
   3154 H          67.7723    7.1071   -3.9290 H       128      M_A    0.0000
   3155 H          66.1653    5.2399   -4.2924 H       128      M_A    0.0000
   3156 H          69.5436    5.7620   -6.9496 H       128      M_A    0.0000
   3157 H          68.4807    6.9660   -7.5355 H       128      M_A    0.0000
   3158 H          68.1197    5.2833   -7.7665 H       128      M_A    0.0000
   3159 C          64.4934    6.4208   -4.5605 C.3     129      M_A    0.0000
   3160 C          63.7272    5.4007   -3.8164 C.2     129      M_A    0.0000
   3161 C          64.2173    5.2915   -2.4324 C.2     129      M_A    0.0000
   3162 O          64.5655    4.3128   -1.8742 O.2     129      M_A    0.0000
   3163 O          64.1419    6.4743   -1.8410 O.3     129      M_A    0.0000
   3164 C          64.5825    6.4761   -0.5349 C.3     129      M_A    0.0000
   3165 H          64.1351    6.4777   -5.5537 H       129      M_A    0.0000
   3166 H          64.3094    7.3722   -4.1373 H       129      M_A    0.0000
   3167 H          62.7327    5.7559   -3.7285 H       129      M_A    0.0000
   3168 H          64.5164    7.4621   -0.1713 H       129      M_A    0.0000
   3169 H          65.5893    6.1684   -0.4838 H       129      M_A    0.0000
   3170 H          63.9695    5.8586    0.0598 H       129      M_A    0.0000
   3171 C          62.2527    2.1706    1.1008 C.2     130      M_A    0.0000
   3172 C          61.8342    1.6735    2.6165 C.3     130      M_A    0.0000
   3173 C          62.5301    0.2253    2.9636 C.2     130      M_A    0.0000
   3174 O          61.9272   -0.8681    3.3819 O.2     130      M_A    0.0000
   3175 O          63.9982    0.3353    2.8221 O.3     130      M_A    0.0000
   3176 C          64.7545   -0.9711    3.1229 C.3     130      M_A    0.0000
   3177 H          61.5831    1.6140    0.3035 H       130      M_A    0.0000
   3178 H          61.9982    3.3174    0.9834 H       130      M_A    0.0000
   3179 H          62.3154    2.4365    3.3822 H       130      M_A    0.0000
   3180 H          65.8996   -0.7773    2.9394 H       130      M_A    0.0000
   3181 H          64.4011   -1.8289    2.3988 H       130      M_A    0.0000
   3182 H          64.6038   -1.2817    4.2478 H       130      M_A    0.0000
   3183 C          60.1573    1.7681    2.9256 C.3     131      M_A    0.0000
   3184 C          59.3738    0.3449    3.2088 C.3     131      M_A    0.0000
   3185 C          59.2955   -0.5559    1.8360 C.2     131      M_A    0.0000
   3186 O          58.2186   -1.0773    1.2860 O.2     131      M_A    0.0000
   3187 O          60.6612   -0.7899    1.3191 O.3     131      M_A    0.0000
   3188 C          60.7059   -1.6256    0.0274 C.3     131      M_A    0.0000
   3189 H          59.6491    2.3248    2.0169 H       131      M_A    0.0000
   3190 H          60.0147    2.4823    3.8548 H       131      M_A    0.0000
   3191 H          60.0462   -0.2850    3.9511 H       131      M_A    0.0000
   3192 H          61.8289   -1.7112   -0.3102 H       131      M_A    0.0000
   3193 H          60.0987   -1.0943   -0.8294 H       131      M_A    0.0000
   3194 H          60.2920   -2.7091    0.2262 H       131      M_A    0.0000
   3195 C          57.8942    0.5356    4.0398 C.3     132      M_A    0.0000
   3196 C          56.5272    0.0885    3.2330 C.3     132      M_A    0.0000
   3197 C          56.8028    0.0339    1.6133 C.2     132      M_A    0.0000
   3198 O          56.1163    0.6411    0.6678 O.2     132      M_A    0.0000
   3199 O          57.9188   -0.8950    1.3323 O.3     132      M_A    0.0000
   3200 C          58.2654   -1.0216   -0.1620 C.3     132      M_A    0.0000
   3201 H          57.8050    1.6648    4.3728 H       132      M_A    0.0000
   3202 H          57.9753   -0.0847    5.0411 H       132      M_A    0.0000
   3203 H          56.2864   -1.0282    3.5410 H       132      M_A    0.0000
   3204 H          59.1853   -1.7472   -0.2604 H       132      M_A    0.0000
   3205 H          58.5676    0.0256   -0.6059 H       132      M_A    0.0000
   3206 H          57.3599   -1.4839   -0.7545 H       132      M_A    0.0000
   3207 C          55.1397    0.9643    3.7062 C.3     133      M_A    0.0000
   3208 C          54.1875    1.5558    2.4966 C.3     133      M_A    0.0000
   3209 C          55.1074    2.2316    1.3138 C.2     133      M_A    0.0000
   3210 O          54.9954    3.4442    0.8128 O.2     133      M_A    0.0000
   3211 O          56.0663    1.2299    0.7995 O.3     133      M_A    0.0000
   3212 C          56.9847    1.7593   -0.3164 C.3     133      M_A    0.0000
   3213 H          55.4875    1.8506    4.4044 H       133      M_A    0.0000
   3214 H          54.4969    0.2522    4.3943 H       133      M_A    0.0000
   3215 H          53.6574    0.6314    1.9825 H       133      M_A    0.0000
   3216 H          57.7256    0.8968   -0.6157 H       133      M_A    0.0000
   3217 H          57.6153    2.6757    0.0677 H       133      M_A    0.0000
   3218 H          56.3509    2.0526   -1.2635 H       133      M_A    0.0000
   3219 C          52.8967    2.5232    3.0571 C.3     134      M_A    0.0000
   3220 C          52.7900    4.0484    2.4392 C.3     134      M_A    0.0000
   3221 C          54.1786    4.4554    1.6594 C.2     134      M_A    0.0000
   3222 O          54.9197    5.5255    1.8587 O.2     134      M_A    0.0000
   3223 O          54.4579    3.4653    0.5969 O.3     134      M_A    0.0000
   3224 C          55.7439    3.7494   -0.1998 C.3     134      M_A    0.0000
   3225 H          52.9655    2.5778    4.2345 H       134      M_A    0.0000
   3226 H          51.8976    1.9386    2.8248 H       134      M_A    0.0000
   3227 H          51.9594    4.0292    1.5968 H       134      M_A    0.0000
   3228 H          55.8847    2.8828   -0.9818 H       134      M_A    0.0000
   3229 H          56.6785    3.7615    0.5154 H       134      M_A    0.0000
   3230 H          55.6477    4.7668   -0.7831 H       134      M_A    0.0000
   3231 C          52.2222    5.2009    3.5642 C.3     135      M_A    0.0000
   3232 C          53.0006    6.6545    3.5940 C.3     135      M_A    0.0000
   3233 C          54.4117    6.5384    4.4290 C.2     135      M_A    0.0000
   3234 O          54.8056    7.2906    5.4355 O.2     135      M_A    0.0000
   3235 O          55.2599    5.4888    3.8239 O.3     135      M_A    0.0000
   3236 C          56.6122    5.2926    4.5324 C.3     135      M_A    0.0000
   3237 H          52.2577    4.7117    4.6381 H       135      M_A    0.0000
   3238 H          51.0777    5.3772    3.3338 H       135      M_A    0.0000
   3239 H          53.3213    6.9045    2.4828 H       135      M_A    0.0000
   3240 H          57.1784    4.4131    3.9954 H       135      M_A    0.0000
   3241 H          56.4487    4.9971    5.6597 H       135      M_A    0.0000
   3242 H          57.2660    6.2669    4.4437 H       135      M_A    0.0000
   3243 C          51.9931    7.9576    4.0446 C.3     136      M_A    0.0000
   3244 C          52.2582    8.6207    5.5310 C.3     136      M_A    0.0000
   3245 C          53.8405    8.4801    5.9537 C.2     136      M_A    0.0000
   3246 O          54.3256    7.9592    7.0615 O.2     136      M_A    0.0000
   3247 O          54.6868    9.1195    4.9230 O.3     136      M_A    0.0000
   3248 C          56.1955    9.0438    5.2181 C.3     136      M_A    0.0000
   3249 H          50.8718    7.5961    3.9676 H       136      M_A    0.0000
   3250 H          52.1143    8.7926    3.2188 H       136      M_A    0.0000
   3251 H          52.0685    9.7848    5.4357 H       136      M_A    0.0000
   3252 H          56.7660    9.5430    4.3193 H       136      M_A    0.0000
   3253 H          56.5437    7.9230    5.3041 H       136      M_A    0.0000
   3254 H          56.4510    9.6400    6.1999 H       136      M_A    0.0000
   3255 C          51.1400    8.1076    6.7152 C.3     137      M_A    0.0000
   3256 C          50.7038    9.2176    7.8541 C.3     137      M_A    0.0000
   3257 C          51.9153   10.3011    8.1002 C.2     137      M_A    0.0000
   3258 O          52.4697   10.6285    9.2488 O.2     137      M_A    0.0000
   3259 O          52.2619   10.9550    6.8198 O.3     137      M_A    0.0000
   3260 C          53.3931   11.9926    6.9341 C.3     137      M_A    0.0000
   3261 H          51.5830    7.1504    7.2457 H       137      M_A    0.0000
   3262 H          50.1754    7.7359    6.1448 H       137      M_A    0.0000
   3263 H          49.8120    9.8516    7.4039 H       137      M_A    0.0000
   3264 H          53.6093   12.4130    5.8575 H       137      M_A    0.0000
   3265 H          54.3755   11.4891    7.3417 H       137      M_A    0.0000
   3266 H          53.0610   12.8859    7.6242 H       137      M_A    0.0000
   3267 C          50.0519    8.5205    9.2702 C.3     138      M_A    0.0000
   3268 C          49.1150    9.4961   10.2137 C.3     138      M_A    0.0000
   3269 C          48.1621   10.4594    9.2831 C.2     138      M_A    0.0000
   3270 O          48.0588   11.7709    9.3400 O.2     138      M_A    0.0000
   3271 O          47.3331    9.6212    8.3901 O.3     138      M_A    0.0000
   3272 C          46.3993   10.4249    7.4676 C.3     138      M_A    0.0000
   3273 H          50.9457    8.0913    9.9111 H       138      M_A    0.0000
   3274 H          49.4210    7.5801    8.9362 H       138      M_A    0.0000
   3275 H          48.3630    8.7982   10.8031 H       138      M_A    0.0000
   3276 H          45.8251    9.6630    6.7804 H       138      M_A    0.0000
   3277 H          47.0215   11.1504    6.7809 H       138      M_A    0.0000
   3278 H          45.6100   11.0222    8.1039 H       138      M_A    0.0000
   3279 C          49.9895   10.3024   11.4389 C.3     139      M_A    0.0000
   3280 C          49.1066   10.9925   12.6488 C.3     139      M_A    0.0000
   3281 C          48.6236    9.8559   13.7336 C.2     139      M_A    0.0000
   3282 O          47.3966    9.6248   14.1519 O.2     139      M_A    0.0000
   3283 O          49.8070    9.1493   14.2699 O.3     139      M_A    0.0000
   3284 C          49.4687    8.0555   15.2987 C.3     139      M_A    0.0000
   3285 H          50.6655   11.1231   10.9256 H       139      M_A    0.0000
   3286 H          50.7403    9.5186   11.9036 H       139      M_A    0.0000
   3287 H          49.8339   11.7039   13.2531 H       139      M_A    0.0000
   3288 H          50.4740    7.5384   15.6217 H       139      M_A    0.0000
   3289 H          48.7676    7.2407   14.8195 H       139      M_A    0.0000
   3290 H          48.9699    8.5309   16.2526 H       139      M_A    0.0000
   3291 C          47.8740   12.0313   12.0852 C.3     140      M_A    0.0000
   3292 C          47.8965   13.5819   12.6463 C.3     140      M_A    0.0000
   3293 C          49.4424   14.0960   12.8647 C.2     140      M_A    0.0000
   3294 O          49.9621   14.6153   13.9576 O.2     140      M_A    0.0000
   3295 O          50.1883   13.9754   11.5933 O.3     140      M_A    0.0000
   3296 C          51.6561   14.4297   11.6844 C.3     140      M_A    0.0000
   3297 H          46.8333   11.5346   12.3386 H       140      M_A    0.0000
   3298 H          47.9410   12.0431   10.9065 H       140      M_A    0.0000
   3299 H          47.4618   14.2723   11.7893 H       140      M_A    0.0000
   3300 H          52.1564   14.2515   10.6354 H       140      M_A    0.0000
   3301 H          52.2362   13.7936   12.4868 H       140      M_A    0.0000
   3302 H          51.7145   15.5778   11.9358 H       140      M_A    0.0000
   3303 C          46.8487   13.8428   13.9692 C.3     141      M_A    0.0000
   3304 C          46.4455   15.4076   14.2988 C.3     141      M_A    0.0000
   3305 C          47.7102   16.1978   14.9904 C.2     141      M_A    0.0000
   3306 O          47.7055   16.8722   16.1214 O.2     141      M_A    0.0000
   3307 O          48.8873   16.1243   14.0980 O.3     141      M_A    0.0000
   3308 C          50.1363   16.8335   14.6514 C.3     141      M_A    0.0000
   3309 H          47.3373   13.3511   14.9249 H       141      M_A    0.0000
   3310 H          45.8653   13.2233   13.7615 H       141      M_A    0.0000
   3311 H          46.2733   15.9521   13.2625 H       141      M_A    0.0000
   3312 H          51.0127   16.6754   13.8837 H       141      M_A    0.0000
   3313 H          50.4548   16.3640   15.6825 H       141      M_A    0.0000
   3314 H          49.9375   17.9883   14.7587 H       141      M_A    0.0000
   3315 C          44.9530   15.5695   15.1127 C.3     142      M_A    0.0000
   3316 C          44.6520   17.0249   15.8275 C.3     142      M_A    0.0000
   3317 C          45.4006   18.2378   15.0087 C.2     142      M_A    0.0000
   3318 O          46.2158   19.1468   15.5018 O.2     142      M_A    0.0000
   3319 O          44.9554   18.2313   13.5984 O.3     142      M_A    0.0000
   3320 C          45.5992   19.3305   12.7346 C.3     142      M_A    0.0000
   3321 H          44.8819   14.7108   15.9197 H       142      M_A    0.0000
   3322 H          44.1020   15.3382   14.3277 H       142      M_A    0.0000
   3323 H          43.4951   17.2426   15.7081 H       142      M_A    0.0000
   3324 H          45.2061   19.2033   11.6339 H       142      M_A    0.0000
   3325 H          46.7706   19.2169   12.7275 H       142      M_A    0.0000
   3326 H          45.2825   20.3950   13.1236 H       142      M_A    0.0000
   3327 C          44.9075   17.0203   17.5159 C.3     143      M_A    0.0000
   3328 C          44.8786   18.4843   18.2745 C.3     143      M_A    0.0000
   3329 C          43.6484   19.4103   17.6991 C.2     143      M_A    0.0000
   3330 O          43.7291   20.6353   17.2229 O.2     143      M_A    0.0000
   3331 O          42.3667   18.6925   17.8708 O.3     143      M_A    0.0000
   3332 C          41.1411   19.4714   17.3605 C.3     143      M_A    0.0000
   3333 H          45.9386   16.4858   17.7280 H       143      M_A    0.0000
   3334 H          44.0839   16.3201   17.9904 H       143      M_A    0.0000
   3335 H          44.6091   18.2870   19.4096 H       143      M_A    0.0000
   3336 H          40.1927   18.7925   17.5093 H       143      M_A    0.0000
   3337 H          41.2520   19.7105   16.2136 H       143      M_A    0.0000
   3338 H          40.9950   20.4588   17.9837 H       143      M_A    0.0000
   3339 C          46.4028   19.2523   18.3312 C.3     144      M_A    0.0000
   3340 C          46.4124   20.8538   18.7245 C.3     144      M_A    0.0000
   3341 C          44.9640   21.5456   18.3699 C.2     144      M_A    0.0000
   3342 O          44.7524   22.6195   17.6379 O.2     144      M_A    0.0000
   3343 O          43.8848   20.8259   19.0801 O.3     144      M_A    0.0000
   3344 C          42.4778   21.3915   18.8165 C.3     144      M_A    0.0000
   3345 H          46.9282   19.0993   17.2850 H       144      M_A    0.0000
   3346 H          47.0635   18.6570   19.1078 H       144      M_A    0.0000
   3347 H          46.5069   20.9262   19.9018 H       144      M_A    0.0000
   3348 H          41.7036   20.7211   19.3942 H       144      M_A    0.0000
   3349 H          42.2240   21.3484   17.6681 H       144      M_A    0.0000
   3350 H          42.3960   22.4923   19.2241 H       144      M_A    0.0000
   3351 C          47.7815   21.6906   18.1400 C.3     145      M_A    0.0000
   3352 C          48.0939   23.1633   18.8131 C.3     145      M_A    0.0000
   3353 C          47.0836   24.3060   18.2000 C.2     145      M_A    0.0000
   3354 O          47.4201   25.4556   17.6530 O.2     145      M_A    0.0000
   3355 O          45.6801   23.8995   18.4284 O.3     145      M_A    0.0000
   3356 C          44.6437   24.9013   17.8889 C.3     145      M_A    0.0000
   3357 H          47.6670   21.8069   16.9707 H       145      M_A    0.0000
   3358 H          48.7144   20.9846   18.2985 H       145      M_A    0.0000
   3359 H          47.8155   23.0916   19.9608 H       145      M_A    0.0000
   3360 H          43.5731   24.4578   18.0880 H       145      M_A    0.0000
   3361 H          44.7763   25.0482   16.7288 H       145      M_A    0.0000
   3362 H          44.7337   25.9286   18.4557 H       145      M_A    0.0000
   3363 C          49.7506   23.5775   18.8068 C.3     146      M_A    0.0000
   3364 C          50.1258   25.1409   19.1736 C.3     146      M_A    0.0000
   3365 C          48.9492   25.8160   20.1020 C.2     146      M_A    0.0000
   3366 O          48.3015   26.9396   19.8740 O.2     146      M_A    0.0000
   3367 O          48.7610   25.0087   21.3267 O.3     146      M_A    0.0000
   3368 C          47.6749   25.5519   22.2725 C.3     146      M_A    0.0000
   3369 H          50.1917   23.3037   17.7465 H       146      M_A    0.0000
   3370 H          50.2918   22.8580   19.5707 H       146      M_A    0.0000
   3371 H          51.0866   25.1193   19.8639 H       146      M_A    0.0000
   3372 H          47.5852   24.8137   23.1832 H       146      M_A    0.0000
   3373 H          46.6343   25.5956   21.7244 H       146      M_A    0.0000
   3374 H          47.9802   26.6127   22.6802 H       146      M_A    0.0000
   3375 C          50.6023   26.0632   17.8177 C.3     147      M_A    0.0000
   3376 C          50.8596   27.6726   18.0686 C.3     147      M_A    0.0000
   3377 C          51.5337   27.9276   19.5460 C.2     147      M_A    0.0000
   3378 O          51.1014   28.7381   20.4894 O.2     147      M_A    0.0000
   3379 O          52.7934   27.1603   19.6542 O.3     147      M_A    0.0000
   3380 C          53.5112   27.3248   21.0058 C.3     147      M_A    0.0000
   3381 H          49.7887   25.9200   16.9742 H       147      M_A    0.0000
   3382 H          51.5888   25.5730   17.3930 H       147      M_A    0.0000
   3383 H          51.6810   28.0226   17.2921 H       147      M_A    0.0000
   3384 H          54.4692   26.6432   20.9927 H       147      M_A    0.0000
   3385 H          52.8159   26.9734   21.8880 H       147      M_A    0.0000
   3386 H          53.8495   28.4417   21.1565 H       147      M_A    0.0000
   3387 C          49.5012   28.6436   17.7108 C.3     148      M_A    0.0000
   3388 C          49.4758   30.1553   18.3692 C.3     148      M_A    0.0000
   3389 C          50.5042   30.2470   19.6483 C.2     148      M_A    0.0000
   3390 O          50.2237   30.6571   20.8678 O.2     148      M_A    0.0000
   3391 O          51.8680   29.8743   19.2145 O.3     148      M_A    0.0000
   3392 C          52.9171   29.9235   20.3397 C.3     148      M_A    0.0000
   3393 H          48.5332   28.0531   18.0398 H       148      M_A    0.0000
   3394 H          49.4355   28.7301   16.5352 H       148      M_A    0.0000
   3395 H          49.9222   30.8975   17.5630 H       148      M_A    0.0000
   3396 H          53.9455   29.5710   19.8920 H       148      M_A    0.0000
   3397 H          52.6206   29.1923   21.2129 H       148      M_A    0.0000
   3398 H          53.0402   31.0243   20.7368 H       148      M_A    0.0000
   3399 C          47.8999   30.7461   18.6583 C.3     149      M_A    0.0000
   3400 C          47.7723   32.3239   19.1207 C.3     149      M_A    0.0000
   3401 C          48.2867   32.5164   20.6700 C.2     149      M_A    0.0000
   3402 O          47.6296   33.0786   21.6632 O.2     149      M_A    0.0000
   3403 O          49.6789   32.0330   20.7929 O.3     149      M_A    0.0000
   3404 C          50.2633   32.1645   22.2107 C.3     149      M_A    0.0000
   3405 H          47.3936   30.0543   19.4701 H       149      M_A    0.0000
   3406 H          47.2790   30.5795   17.6680 H       149      M_A    0.0000
   3407 H          48.5359   32.9455   18.4645 H       149      M_A    0.0000
   3408 H          51.3497   31.7150   22.1981 H       149      M_A    0.0000
   3409 H          49.6166   31.5547   22.9821 H       149      M_A    0.0000
   3410 H          50.3314   33.2973   22.5220 H       149      M_A    0.0000
   3411 C          46.2521   33.0166   18.7669 C.3     150      M_A    0.0000
   3412 C          45.7354   34.2221   19.7666 C.3     150      M_A    0.0000
   3413 C          45.7663   33.7274   21.3339 C.2     150      M_A    0.0000
   3414 O          44.7770   33.7698   22.2020 O.2     150      M_A    0.0000
   3415 O          47.1334   33.2875   21.6871 O.3     150      M_A    0.0000
   3416 C          47.2769   32.7986   23.1395 C.3     150      M_A    0.0000
   3417 H          45.4511   32.1495   18.7469 H       150      M_A    0.0000
   3418 H          46.3050   33.4248   17.6603 H       150      M_A    0.0000
   3419 H          46.5313   35.0955   19.7048 H       150      M_A    0.0000
   3420 H          48.3856   32.4385   23.2928 H       150      M_A    0.0000
   3421 H          46.5583   31.8889   23.3419 H       150      M_A    0.0000
   3422 H          47.0628   33.6787   23.8907 H       150      M_A    0.0000
   3423 C          44.2745   34.9474   19.2607 C.3     151      M_A    0.0000
   3424 C          43.4482   35.8182   20.3914 C.3     151      M_A    0.0000
   3425 C          43.4965   35.0646   21.8514 C.2     151      M_A    0.0000
   3426 O          42.4736   34.7434   22.6160 O.2     151      M_A    0.0000
   3427 O          44.9041   34.8599   22.2564 O.3     151      M_A    0.0000
   3428 C          45.0674   34.1559   23.6153 C.3     151      M_A    0.0000
   3429 H          43.5764   34.0994   18.8275 H       151      M_A    0.0000
   3430 H          44.5319   35.6452   18.3439 H       151      M_A    0.0000
   3431 H          44.0346   36.8336   20.5507 H       151      M_A    0.0000
   3432 H          46.2174   34.0109   23.8125 H       151      M_A    0.0000
   3433 H          44.5562   33.0961   23.5954 H       151      M_A    0.0000
   3434 H          44.6217   34.8215   24.4773 H       151      M_A    0.0000
   3435 C          41.8953   36.3056   19.8747 C.3     152      M_A    0.0000
   3436 C          41.6237   37.9288   19.7702 C.3     152      M_A    0.0000
   3437 C          42.1836   38.5186   18.3416 C.2     152      M_A    0.0000
   3438 O          43.0122   39.5269   18.1663 O.2     152      M_A    0.0000
   3439 O          41.5427   37.7950   17.2223 O.3     152      M_A    0.0000
   3440 C          41.9985   38.2675   15.8301 C.3     152      M_A    0.0000
   3441 H          41.0997   35.8177   20.5978 H       152      M_A    0.0000
   3442 H          41.7091   35.8112   18.8188 H       152      M_A    0.0000
   3443 H          40.4518   38.0874   19.7293 H       152      M_A    0.0000
   3444 H          41.4596   37.5996   15.0264 H       152      M_A    0.0000
   3445 H          43.1612   38.1319   15.7083 H       152      M_A    0.0000
   3446 H          41.6854   39.3882   15.6553 H       152      M_A    0.0000
   3447 C          42.1173   38.7928   21.1580 C.3     153      M_A    0.0000
   3448 C          40.9758   39.7275   21.8949 C.3     153      M_A    0.0000
   3449 C          39.6332   38.8418   22.2340 C.2     153      M_A    0.0000
   3450 O          38.3905   39.1190   21.8980 O.2     153      M_A    0.0000
   3451 O          40.0037   37.6845   23.0769 O.3     153      M_A    0.0000
   3452 C          38.8163   36.7807   23.4543 C.3     153      M_A    0.0000
   3453 H          43.0442   39.4613   20.8618 H       153      M_A    0.0000
   3454 H          42.5308   38.0020   21.9311 H       153      M_A    0.0000
   3455 H          41.4085   40.0448   22.9495 H       153      M_A    0.0000
   3456 H          39.2328   35.8794   24.0842 H       153      M_A    0.0000
   3457 H          38.2998   36.3524   22.4875 H       153      M_A    0.0000
   3458 H          38.0446   37.3735   24.1158 H       153      M_A    0.0000
   3459 C          40.6881   41.2085   21.0949 C.3     154      M_A    0.0000
   3460 C          40.4558   42.5338   22.0485 C.3     154      M_A    0.0000
   3461 C          41.5622   42.5737   23.2636 C.2     154      M_A    0.0000
   3462 O          41.3242   42.6824   24.5541 O.2     154      M_A    0.0000
   3463 O          42.9260   42.5577   22.6917 O.3     154      M_A    0.0000
   3464 C          44.0464   42.5901   23.7465 C.3     154      M_A    0.0000
   3465 H          39.7564   41.0650   20.3842 H       154      M_A    0.0000
   3466 H          41.6066   41.4010   20.3785 H       154      M_A    0.0000
   3467 H          40.6904   43.4874   21.3885 H       154      M_A    0.0000
   3468 H          45.0766   42.5322   23.1829 H       154      M_A    0.0000
   3469 H          43.9628   41.6628   24.4663 H       154      M_A    0.0000
   3470 H          44.0087   43.5978   24.3530 H       154      M_A    0.0000
   3471 C          38.8327   42.7471   22.5346 C.3     155      M_A    0.0000
   3472 C          38.4830   44.1268   23.3675 C.3     155      M_A    0.0000
   3473 C          39.4402   45.3649   22.8646 C.2     155      M_A    0.0000
   3474 O          40.1963   46.1414   23.6125 O.2     155      M_A    0.0000
   3475 O          39.2716   45.5608   21.4085 O.3     155      M_A    0.0000
   3476 C          40.1284   46.7000   20.8278 C.3     155      M_A    0.0000
   3477 H          38.5169   41.8076   23.1761 H       155      M_A    0.0000
   3478 H          38.1689   42.7027   21.5593 H       155      M_A    0.0000
   3479 H          37.3839   44.4483   23.0697 H       155      M_A    0.0000
   3480 H          39.9452   46.7357   19.6669 H       155      M_A    0.0000
   3481 H          41.2715   46.4954   21.0186 H       155      M_A    0.0000
   3482 H          39.8034   47.7326   21.2891 H       155      M_A    0.0000
   3483 C          38.4121   43.9020   25.0588 C.3     156      M_A    0.0000
   3484 C          37.5289   44.9991   25.9166 C.3     156      M_A    0.0000
   3485 C          36.2946   45.5883   25.0049 C.2     156      M_A    0.0000
   3486 O          36.0140   46.8525   24.7661 O.2     156      M_A    0.0000
   3487 O          35.4489   44.4698   24.5348 O.3     156      M_A    0.0000
   3488 C          34.2577   44.9097   23.6650 C.3     156      M_A    0.0000
   3489 H          39.5183   43.8766   25.4707 H       156      M_A    0.0000
   3490 H          37.9785   42.8202   25.2480 H       156      M_A    0.0000
   3491 H          37.0046   44.4138   26.8013 H       156      M_A    0.0000
   3492 H          33.6860   43.9428   23.3177 H       156      M_A    0.0000
   3493 H          34.6342   45.4835   22.7089 H       156      M_A    0.0000
   3494 H          33.5177   45.5766   24.2912 H       156      M_A    0.0000
   3495 C          38.4833   46.1790   26.6997 C.3     157      M_A    0.0000
   3496 C          37.7953   46.9602   27.9787 C.3     157      M_A    0.0000
   3497 C          38.2382   46.2533   29.3951 C.2     157      M_A    0.0000
   3498 O          37.4436   45.8189   30.3510 O.2     157      M_A    0.0000
   3499 O          39.7132   46.2439   29.5035 O.3     157      M_A    0.0000
   3500 C          40.2406   45.5989   30.7976 C.3     157      M_A    0.0000
   3501 H          38.8240   46.9689   25.8911 H       157      M_A    0.0000
   3502 H          39.4733   45.6442   27.0573 H       157      M_A    0.0000
   3503 H          38.2617   48.0469   28.0193 H       157      M_A    0.0000
   3504 H          41.4156   45.6101   30.7554 H       157      M_A    0.0000
   3505 H          39.8813   44.4811   30.8781 H       157      M_A    0.0000
   3506 H          39.8947   46.2202   31.7352 H       157      M_A    0.0000
   3507 C          36.1192   47.2282   27.7917 C.3     158      M_A    0.0000
   3508 C          35.3986   48.2187   28.8959 C.3     158      M_A    0.0000
   3509 C          35.2252   47.4489   30.3379 C.2     158      M_A    0.0000
   3510 O          34.1185   47.3078   31.0373 O.2     158      M_A    0.0000
   3511 O          36.5470   46.9873   30.8144 O.3     158      M_A    0.0000
   3512 C          36.5015   46.2470   32.1631 C.3     158      M_A    0.0000
   3513 H          35.5791   46.1783   27.7911 H       158      M_A    0.0000
   3514 H          35.9562   47.6692   26.7088 H       158      M_A    0.0000
   3515 H          36.1477   49.1089   29.1114 H       158      M_A    0.0000
   3516 H          37.5931   45.8935   32.4195 H       158      M_A    0.0000
   3517 H          35.8100   45.2975   32.0898 H       158      M_A    0.0000
   3518 H          36.1333   46.9704   33.0150 H       158      M_A    0.0000
   3519 C          33.9914   48.9861   28.3065 C.3     159      M_A    0.0000
   3520 C          32.6937   49.0377   29.3227 C.3     159      M_A    0.0000
   3521 C          33.1786   49.3254   30.8668 C.2     159      M_A    0.0000
   3522 O          32.8874   48.6170   31.9380 O.2     159      M_A    0.0000
   3523 O          33.9486   50.5870   30.9167 O.3     159      M_A    0.0000
   3524 C          34.4565   50.9540   32.3226 C.3     159      M_A    0.0000
   3525 H          33.6822   48.4571   27.2973 H       159      M_A    0.0000
   3526 H          34.2952   50.0870   28.0072 H       159      M_A    0.0000
   3527 H          32.0492   49.9835   29.0223 H       159      M_A    0.0000
   3528 H          35.0843   51.9442   32.2340 H       159      M_A    0.0000
   3529 H          35.1555   50.1060   32.7435 H       159      M_A    0.0000
   3530 H          33.5502   51.1500   33.0470 H       159      M_A    0.0000
   3531 C          31.6241   47.7206   29.1290 C.3     160      M_A    0.0000
   3532 C          30.5049   47.4928   30.3186 C.3     160      M_A    0.0000
   3533 C          30.8815   48.3855   31.6464 C.2     160      M_A    0.0000
   3534 O          31.0076   47.9564   32.8850 O.2     160      M_A    0.0000
   3535 O          30.9816   49.8125   31.2712 O.3     160      M_A    0.0000
   3536 C          31.3346   50.7440   32.4446 C.3     160      M_A    0.0000
   3537 H          32.2702   46.7408   29.0016 H       160      M_A    0.0000
   3538 H          31.0701   47.8714   28.0974 H       160      M_A    0.0000
   3539 H          29.4812   47.9399   29.9286 H       160      M_A    0.0000
   3540 H          31.4272   51.8379   32.0237 H       160      M_A    0.0000
   3541 H          32.3676   50.4382   32.9182 H       160      M_A    0.0000
   3542 H          30.4797   50.7260   33.2530 H       160      M_A    0.0000
   3543 C          30.1578   45.8484   30.6213 C.3     161      M_A    0.0000
   3544 C          28.5743   45.3961   30.5336 C.3     161      M_A    0.0000
   3545 C          27.5952   46.7164   30.5184 C.2     161      M_A    0.0000
   3546 O          26.5776   46.9624   31.3171 O.2     161      M_A    0.0000
   3547 O          27.9652   47.5938   29.3868 O.3     161      M_A    0.0000
   3548 C          27.1092   48.8683   29.2785 C.3     161      M_A    0.0000
   3549 H          30.5886   45.5739   31.6857 H       161      M_A    0.0000
   3550 H          30.7872   45.2125   29.8510 H       161      M_A    0.0000
   3551 H          28.4132   44.8825   29.4799 H       161      M_A    0.0000
   3552 H          27.5169   49.5032   28.3767 H       161      M_A    0.0000
   3553 H          27.2013   49.5122   30.2592 H       161      M_A    0.0000
   3554 H          25.9865   48.5903   29.0620 H       161      M_A    0.0000
   3555 C          28.1480   44.1865   31.6612 C.3     162      M_A    0.0000
   3556 C          26.7973   43.3020   31.3251 C.3     162      M_A    0.0000
   3557 C          25.6632   44.2352   30.5867 C.2     162      M_A    0.0000
   3558 O          24.4076   44.3983   30.9485 O.2     162      M_A    0.0000
   3559 O          26.2342   44.8289   29.3584 O.3     162      M_A    0.0000
   3560 C          25.2536   45.7286   28.5851 C.3     162      M_A    0.0000
   3561 H          28.0324   44.6975   32.7191 H       162      M_A    0.0000
   3562 H          29.0739   43.4606   31.7592 H       162      M_A    0.0000
   3563 H          27.0998   42.4910   30.5183 H       162      M_A    0.0000
   3564 H          25.8243   46.1743   27.6588 H       162      M_A    0.0000
   3565 H          24.8890   46.6195   29.2621 H       162      M_A    0.0000
   3566 H          24.3410   45.0976   28.1933 H       162      M_A    0.0000
   3567 C          26.2350   42.3863   32.6523 C.3     163      M_A    0.0000
   3568 C          26.6040   40.7790   32.6542 C.3     163      M_A    0.0000
   3569 C          25.6037   39.9543   31.6436 C.2     163      M_A    0.0000
   3570 O          24.8737   38.8973   31.9335 O.2     163      M_A    0.0000
   3571 O          25.6967   40.5237   30.2819 O.3     163      M_A    0.0000
   3572 C          24.7943   39.8247   29.2493 C.3     163      M_A    0.0000
   3573 H          25.0643   42.5229   32.7207 H       163      M_A    0.0000
   3574 H          26.6702   42.8865   33.6292 H       163      M_A    0.0000
   3575 H          27.6818   40.6651   32.1792 H       163      M_A    0.0000
   3576 H          24.9189   40.3833   28.2222 H       163      M_A    0.0000
   3577 H          23.6654   39.8914   29.5751 H       163      M_A    0.0000
   3578 H          25.1256   38.7045   29.1078 H       163      M_A    0.0000
   3579 C          26.7624   40.1183   34.2209 C.3     164      M_A    0.0000
   3580 C          28.2045   39.4048   34.5828 C.3     164      M_A    0.0000
   3581 C          28.9612   38.9017   33.2130 C.2     164      M_A    0.0000
   3582 O          29.4207   37.6950   32.9544 O.2     164      M_A    0.0000
   3583 O          29.1459   40.0499   32.2994 O.3     164      M_A    0.0000
   3584 C          29.8466   39.6900   30.9771 C.3     164      M_A    0.0000
   3585 H          25.8868   39.3426   34.3806 H       164      M_A    0.0000
   3586 H          26.5567   40.9911   34.9888 H       164      M_A    0.0000
   3587 H          28.9086   40.2429   35.0320 H       164      M_A    0.0000
   3588 H          29.9011   40.6631   30.3193 H       164      M_A    0.0000
   3589 H          29.2292   38.8778   30.3904 H       164      M_A    0.0000
   3590 H          30.9432   39.3166   31.1832 H       164      M_A    0.0000
   3591 C          28.0943   38.2375   35.8243 C.3     165      M_A    0.0000
   3592 C          29.1877   38.3561   37.0532 C.3     165      M_A    0.0000
   3593 C          28.7312   39.5165   38.1242 C.2     165      M_A    0.0000
   3594 O          29.4500   40.5343   38.5500 O.2     165      M_A    0.0000
   3595 O          27.3786   39.2109   38.6382 O.3     165      M_A    0.0000
   3596 C          26.8482   40.2400   39.6525 C.3     165      M_A    0.0000
   3597 H          28.1713   37.1687   35.3289 H       165      M_A    0.0000
   3598 H          27.0021   38.3035   36.2678 H       165      M_A    0.0000
   3599 H          29.1439   37.3424   37.6619 H       165      M_A    0.0000
   3600 H          25.7589   39.9196   39.9579 H       165      M_A    0.0000
   3601 H          26.7993   41.3109   39.1670 H       165      M_A    0.0000
   3602 H          27.5202   40.2466   40.6184 H       165      M_A    0.0000
   3603 C          30.8062   38.4559   36.5176 C.3     166      M_A    0.0000
   3604 C          31.8010   37.2055   36.9257 C.3     166      M_A    0.0000
   3605 C          31.4371   36.6424   38.4265 C.2     166      M_A    0.0000
   3606 O          32.2627   36.4865   39.4404 O.2     166      M_A    0.0000
   3607 O          30.0166   36.2332   38.4705 O.3     166      M_A    0.0000
   3608 C          29.5649   35.6894   39.8377 C.3     166      M_A    0.0000
   3609 H          31.2614   39.4694   36.9169 H       166      M_A    0.0000
   3610 H          30.7775   38.5626   35.3421 H       166      M_A    0.0000
   3611 H          31.5566   36.3084   36.1938 H       166      M_A    0.0000
   3612 H          28.4187   35.4370   39.7667 H       166      M_A    0.0000
   3613 H          29.7164   36.5017   40.6757 H       166      M_A    0.0000
   3614 H          30.1492   34.7020   40.0990 H       166      M_A    0.0000
   3615 C          33.4544   37.5334   36.6522 C.3     167      M_A    0.0000
   3616 C          34.4393   36.2322   36.4147 C.3     167      M_A    0.0000
   3617 C          34.1418   35.5401   34.9537 C.2     167      M_A    0.0000
   3618 O          33.8649   34.2755   34.7131 O.2     167      M_A    0.0000
   3619 O          34.3169   36.5468   33.8845 O.3     167      M_A    0.0000
   3620 C          34.0592   36.0045   32.4672 C.3     167      M_A    0.0000
   3621 H          33.8555   38.1718   37.5608 H       167      M_A    0.0000
   3622 H          33.5170   38.2453   35.7125 H       167      M_A    0.0000
   3623 H          35.5480   36.6391   36.3414 H       167      M_A    0.0000
   3624 H          34.1861   36.8948   31.7099 H       167      M_A    0.0000
   3625 H          32.9609   35.5917   32.3764 H       167      M_A    0.0000
   3626 H          34.8451   35.1709   32.1987 H       167      M_A    0.0000
   3627 C          34.4735   35.1532   37.7379 C.3     168      M_A    0.0000
   3628 C          35.1870   33.6886   37.4825 C.3     168      M_A    0.0000
   3629 C          34.6203   33.0017   36.1008 C.2     168      M_A    0.0000
   3630 O          34.1043   31.7980   35.9634 O.2     168      M_A    0.0000
   3631 O          34.8523   33.9165   34.9622 O.3     168      M_A    0.0000
   3632 C          34.3552   33.3715   33.6113 C.3     168      M_A    0.0000
   3633 H          33.3637   34.9929   38.1074 H       168      M_A    0.0000
   3634 H          35.0257   35.7059   38.6231 H       168      M_A    0.0000
   3635 H          36.3352   33.8877   37.2775 H       168      M_A    0.0000
   3636 H          34.5531   34.1933   32.7940 H       168      M_A    0.0000
   3637 H          33.1986   33.1580   33.6526 H       168      M_A    0.0000
   3638 H          34.9516   32.4008   33.3169 H       168      M_A    0.0000
   3639 C          35.1743   32.6757   38.8573 C.3     169      M_A    0.0000
   3640 C          36.3664   31.5402   38.9532 C.3     169      M_A    0.0000
   3641 C          37.8397   32.2573   39.0833 C.2     169      M_A    0.0000
   3642 O          38.8980   32.0453   38.3289 O.2     169      M_A    0.0000
   3643 O          37.8534   33.1494   40.2628 O.3     169      M_A    0.0000
   3644 C          39.1917   33.8782   40.4796 C.3     169      M_A    0.0000
   3645 H          34.1200   32.1472   38.9121 H       169      M_A    0.0000
   3646 H          35.2273   33.3764   39.8060 H       169      M_A    0.0000
   3647 H          36.2170   30.9588   39.9729 H       169      M_A    0.0000
   3648 H          39.0729   34.5841   41.4124 H       169      M_A    0.0000
   3649 H          39.4581   34.5396   39.5433 H       169      M_A    0.0000
   3650 H          40.0482   33.1033   40.7044 H       169      M_A    0.0000
   3651 C          36.2500   30.3277   37.7564 C.3     170      M_A    0.0000
   3652 C          36.4900   28.7726   38.2500 C.3     170      M_A    0.0000
   3653 C          35.0551   28.0428   38.5824 C.2     170      M_A    0.0000
   3654 O          34.7151   27.4236   39.6937 O.2     170      M_A    0.0000
   3655 O          34.1839   28.0975   37.3885 O.3     170      M_A    0.0000
   3656 C          32.8061   27.4416   37.5897 C.3     170      M_A    0.0000
   3657 H          37.0127   30.5907   36.8944 H       170      M_A    0.0000
   3658 H          35.1780   30.4205   37.2704 H       170      M_A    0.0000
   3659 H          36.9318   28.1755   37.3290 H       170      M_A    0.0000
   3660 H          32.1902   27.5807   36.5978 H       170      M_A    0.0000
   3661 H          32.2231   27.9665   38.4670 H       170      M_A    0.0000
   3662 H          32.9272   26.2895   37.7957 H       170      M_A    0.0000
   3663 C          37.6828   28.6192   39.4624 C.3     171      M_A    0.0000
   3664 C          38.8541   27.4859   39.2115 C.3     171      M_A    0.0000
   3665 C          39.4854   27.6305   37.7006 C.2     171      M_A    0.0000
   3666 O          39.5968   26.6856   36.7903 O.2     171      M_A    0.0000
   3667 O          40.0150   28.9987   37.5145 O.3     171      M_A    0.0000
   3668 C          40.6309   29.2469   36.1260 C.3     171      M_A    0.0000
   3669 H          37.1370   28.4031   40.4868 H       171      M_A    0.0000
   3670 H          38.1876   29.6789   39.5896 H       171      M_A    0.0000
   3671 H          39.7493   27.7373   39.9433 H       171      M_A    0.0000
   3672 H          40.9780   30.3693   36.0788 H       171      M_A    0.0000
   3673 H          39.8308   29.0685   35.2815 H       171      M_A    0.0000
   3674 H          41.5715   28.5581   35.9662 H       171      M_A    0.0000
   3675 C          38.3796   25.9063   39.6541 C.3     172      M_A    0.0000
   3676 C          39.4387   25.0455   40.5799 C.2     172      M_A    0.0000
   3677 C          39.8027   25.8658   41.9571 C.2     172      M_A    0.0000
   3678 O          41.0015   26.1675   42.4110 O.2     172      M_A    0.0000
   3679 O          38.5589   26.1613   42.7005 O.3     172      M_A    0.0000
   3680 C          38.7837   26.9333   44.0129 C.3     172      M_A    0.0000
   3681 H          38.1406   25.3061   38.6659 H       172      M_A    0.0000
   3682 H          37.3505   25.9995   40.2251 H       172      M_A    0.0000
   3683 H          38.8759   24.0702   40.9433 H       172      M_A    0.0000
   3684 H          37.7316   27.1466   44.4927 H       172      M_A    0.0000
   3685 H          39.3122   27.9632   43.8008 H       172      M_A    0.0000
   3686 H          39.4133   26.2851   44.7666 H       172      M_A    0.0000
   3687 C          37.8616   21.8339   45.3373 C.2     173      M_A    0.0000
   3688 C          38.2367   21.0049   44.1027 C.3     173      M_A    0.0000
   3689 C          37.0885   20.9923   43.0936 C.2     173      M_A    0.0000
   3690 O          36.5567   20.0113   42.5890 O.2     173      M_A    0.0000
   3691 O          36.7659   22.2837   42.7474 O.3     173      M_A    0.0000
   3692 C          35.6943   22.3820   41.8034 C.3     173      M_A    0.0000
   3693 H          37.4202   21.1785   46.0996 H       173      M_A    0.0000
   3694 H          38.7750   22.2405   45.7911 H       173      M_A    0.0000
   3695 H          39.0585   21.5303   43.5933 H       173      M_A    0.0000
   3696 H          35.4954   23.4429   41.6287 H       173      M_A    0.0000
   3697 H          34.7863   21.9205   42.2039 H       173      M_A    0.0000
   3698 H          35.9807   21.9211   40.8531 H       173      M_A    0.0000
   3699 C          38.8428   19.5802   44.4565 C.3     174      M_A    0.0000
   3700 C          40.3399   19.5297   44.7853 C.3     174      M_A    0.0000
   3701 C          40.6097   20.1391   46.1611 C.2     174      M_A    0.0000
   3702 O          41.4059   21.0287   46.4338 O.2     174      M_A    0.0000
   3703 O          39.8683   19.4765   47.1113 O.3     174      M_A    0.0000
   3704 C          40.0487   19.9752   48.4409 C.3     174      M_A    0.0000
   3705 H          38.6272   18.9021   43.6204 H       174      M_A    0.0000
   3706 H          38.2718   19.1885   45.3086 H       174      M_A    0.0000
   3707 H          40.6176   18.4695   44.8835 H       174      M_A    0.0000
   3708 H          39.3905   19.4087   49.1054 H       174      M_A    0.0000
   3709 H          39.7701   21.0322   48.4957 H       174      M_A    0.0000
   3710 H          41.0827   19.8260   48.7665 H       174      M_A    0.0000
   3711 C          41.2646   20.0697   43.6125 C.3     175      M_A    0.0000
   3712 C          42.4603   19.1941   43.2180 C.3     175      M_A    0.0000
   3713 C          43.0905   18.5543   44.4552 C.2     175      M_A    0.0000
   3714 O          44.2669   18.5962   44.7928 O.2     175      M_A    0.0000
   3715 O          42.1401   17.8248   45.1306 O.3     175      M_A    0.0000
   3716 C          42.6310   17.1838   46.3126 C.3     175      M_A    0.0000
   3717 H          41.6187   21.0706   43.8923 H       175      M_A    0.0000
   3718 H          40.6208   20.2191   42.7358 H       175      M_A    0.0000
   3719 H          42.0683   18.3511   42.6293 H       175      M_A    0.0000
   3720 H          41.7929   16.6679   46.7891 H       175      M_A    0.0000
   3721 H          43.0266   17.9243   47.0149 H       175      M_A    0.0000
   3722 H          43.3939   16.4428   46.0549 H       175      M_A    0.0000
   3723 C          43.4785   19.9170   42.2367 C.3     176      M_A    0.0000
   3724 C          44.9714   19.6744   42.4904 C.3     176      M_A    0.0000
   3725 C          45.2802   19.3285   43.8228 C.2     176      M_A    0.0000
   3726 O          46.0407   19.8213   44.4981 O.2     176      M_A    0.0000
   3727 O          44.6176   18.2995   44.1590 O.3     176      M_A    0.0000
   3728 C          44.8402   17.8994   45.3981 C.3     176      M_A    0.0000
   3729 H          43.2713   20.9948   42.2658 H       176      M_A    0.0000
   3730 H          43.2280   19.5960   41.2170 H       176      M_A    0.0000
   3731 H          45.2108   18.8532   41.9430 H       176      M_A    0.0000
   3732 H          44.2460   17.1043   45.5796 H       176      M_A    0.0000
   3733 H          44.6053   18.6306   46.0541 H       176      M_A    0.0000
   3734 H          45.8022   17.6122   45.5071 H       176      M_A    0.0000
   3735 C          45.7928   20.7435   41.9160 C.3     177      M_A    0.0000
   3736 C          46.7264   21.3635   42.7804 C.3     177      M_A    0.0000
   3737 C          46.4601   21.0251   44.1239 C.2     177      M_A    0.0000
   3738 O          46.3139   21.7347   44.9913 O.2     177      M_A    0.0000
   3739 O          46.4791   19.7629   44.2558 O.3     177      M_A    0.0000
   3740 C          46.2368   19.3485   45.4864 C.3     177      M_A    0.0000
   3741 H          45.1707   21.4442   41.5303 H       177      M_A    0.0000
   3742 H          46.2837   20.3490   41.1222 H       177      M_A    0.0000
   3743 H          47.6363   20.9585   42.5823 H       177      M_A    0.0000
   3744 H          46.2385   18.3394   45.4808 H       177      M_A    0.0000
   3745 H          45.3285   19.6650   45.7946 H       177      M_A    0.0000
   3746 H          46.9616   19.6668   46.1134 H       177      M_A    0.0000
   3747 C          46.9035   22.7948   42.5199 C.3     178      M_A    0.0000
   3748 C          46.5600   23.6802   43.5693 C.3     178      M_A    0.0000
   3749 C          45.8184   23.0082   44.5636 C.2     178      M_A    0.0000
   3750 O          44.8138   23.3072   44.9861 O.2     178      M_A    0.0000
   3751 O          46.4865   22.0195   44.9963 O.3     178      M_A    0.0000
   3752 C          45.8688   21.3241   45.9343 C.3     178      M_A    0.0000
   3753 H          46.3723   23.0305   41.6899 H       178      M_A    0.0000
   3754 H          47.8753   22.9346   42.2698 H       178      M_A    0.0000
   3755 H          47.4238   23.9559   44.0264 H       178      M_A    0.0000
   3756 H          46.4605   20.5462   46.1852 H       178      M_A    0.0000
   3757 H          44.9928   20.9607   45.5871 H       178      M_A    0.0000
   3758 H          45.7230   21.8938   46.7554 H       178      M_A    0.0000
   3759 C          45.9793   24.9424   43.1028 C.3     179      M_A    0.0000
   3760 C          44.5891   25.1161   43.3030 C.3     179      M_A    0.0000
   3761 C          43.8558   24.2078   42.5108 C.2     179      M_A    0.0000
   3762 O          43.0240   24.4506   41.7853 O.2     179      M_A    0.0000
   3763 O          44.2148   23.0211   42.7827 O.3     179      M_A    0.0000
   3764 C          43.5809   22.0958   42.0849 C.3     179      M_A    0.0000
   3765 H          46.1950   25.0416   42.1177 H       179      M_A    0.0000
   3766 H          46.4797   25.6909   43.5676 H       179      M_A    0.0000
   3767 H          44.3870   24.8514   44.2624 H       179      M_A    0.0000
   3768 H          43.9584   21.1969   42.3452 H       179      M_A    0.0000
   3769 H          43.7326   22.2320   41.0957 H       179      M_A    0.0000
   3770 H          42.5950   22.1048   42.3034 H       179      M_A    0.0000
   3771 C          44.1558   26.5133   43.2148 C.3     180      M_A    0.0000
   3772 C          43.5165   26.9071   42.0150 C.3     180      M_A    0.0000
   3773 C          43.8559   26.0328   40.9612 C.2     180      M_A    0.0000
   3774 O          44.2773   26.3120   39.9504 O.2     180      M_A    0.0000
   3775 O          43.5453   24.8439   41.2789 O.3     180      M_A    0.0000
   3776 C          43.8291   23.9488   40.3498 C.3     180      M_A    0.0000
   3777 H          44.9634   27.1030   43.3779 H       180      M_A    0.0000
   3778 H          43.5331   26.6826   43.9960 H       180      M_A    0.0000
   3779 H          42.5178   26.7815   42.1500 H       180      M_A    0.0000
   3780 H          43.5800   23.0390   40.7080 H       180      M_A    0.0000
   3781 H          44.8181   23.9521   40.1450 H       180      M_A    0.0000
   3782 H          43.2874   24.1242   39.5158 H       180      M_A    0.0000
   3783 C          43.6639   28.3340   41.7151 C.3     181      M_A    0.0000
   3784 C          43.2002   29.2421   42.6966 C.3     181      M_A    0.0000
   3785 C          42.1317   28.6810   43.4273 C.2     181      M_A    0.0000
   3786 O          41.1102   29.1326   43.5999 O.2     181      M_A    0.0000
   3787 O          42.5045   27.5872   43.9524 O.3     181      M_A    0.0000
   3788 C          41.5653   26.9838   44.6586 C.3     181      M_A    0.0000
   3789 H          43.1979   28.5193   40.8347 H       181      M_A    0.0000
   3790 H          44.6481   28.5026   41.5428 H       181      M_A    0.0000
   3791 H          43.9475   29.3625   43.3736 H       181      M_A    0.0000
   3792 H          41.9448   26.1141   45.0019 H       181      M_A    0.0000
   3793 H          40.7643   26.7767   44.0792 H       181      M_A    0.0000
   3794 H          41.3007   27.5527   45.4499 H       181      M_A    0.0000
   3795 C          42.9616   30.5920   42.1780 C.3     182      M_A    0.0000
   3796 C          44.0155   31.5254   42.3236 C.3     182      M_A    0.0000
   3797 C          44.4107   31.6218   43.6745 C.2     182      M_A    0.0000
   3798 O          44.4920   32.5612   44.2974 O.2     182      M_A    0.0000
   3799 O          44.7498   30.4753   44.1006 O.3     182      M_A    0.0000
   3800 C          45.1354   30.4651   45.3640 C.3     182      M_A    0.0000
   3801 H          42.1245   30.9541   42.6195 H       182      M_A    0.0000
   3802 H          42.7322   30.4980   41.1956 H       182      M_A    0.0000
   3803 H          44.8235   31.1462   41.8393 H       182      M_A    0.0000
   3804 H          45.3484   29.5116   45.6165 H       182      M_A    0.0000
   3805 H          44.3933   30.7966   45.9636 H       182      M_A    0.0000
   3806 H          45.9698   31.0218   45.4811 H       182      M_A    0.0000
   3807 C          43.7604   32.8041   41.6545 C.3     183      M_A    0.0000
   3808 C          44.7865   33.2990   40.8146 C.3     183      M_A    0.0000
   3809 C          45.5220   32.2359   40.2497 C.2     183      M_A    0.0000
   3810 O          46.6422   32.0891   40.2777 O.2     183      M_A    0.0000
   3811 O          44.7373   31.4677   39.6132 O.3     183      M_A    0.0000
   3812 C          45.3383   30.4360   39.0480 C.3     183      M_A    0.0000
   3813 H          43.5430   33.4923   42.3657 H       183      M_A    0.0000
   3814 H          42.9106   32.6938   41.1139 H       183      M_A    0.0000
   3815 H          44.3375   33.7563   40.0269 H       183      M_A    0.0000
   3816 H          44.6317   29.8712   38.6007 H       183      M_A    0.0000
   3817 H          45.8046   29.8724   39.7444 H       183      M_A    0.0000
   3818 H          45.9897   30.7514   38.3438 H       183      M_A    0.0000
   3819 C          45.5912   34.3552   41.4349 C.3     184      M_A    0.0000
   3820 C          45.8304   35.5132   40.6570 C.3     184      M_A    0.0000
   3821 C          46.8339   35.2676   39.6963 C.2     184      M_A    0.0000
   3822 O          47.7765   35.8668   39.5241 O.2     184      M_A    0.0000
   3823 O          46.4927   34.2863   38.9671 O.3     184      M_A    0.0000
   3824 C          47.3759   33.9787   38.0342 C.3     184      M_A    0.0000
   3825 H          46.4749   33.9497   41.7199 H       184      M_A    0.0000
   3826 H          45.1241   34.6208   42.2939 H       184      M_A    0.0000
   3827 H          44.9888   35.6940   40.1183 H       184      M_A    0.0000
   3828 H          47.0330   33.1714   37.5354 H       184      M_A    0.0000
   3829 H          48.2648   33.7428   38.4518 H       184      M_A    0.0000
   3830 H          47.4758   34.7413   37.3798 H       184      M_A    0.0000
   3831 C          46.0151   36.7271   41.4571 C.3     185      M_A    0.0000
   3832 C          46.2960   37.9198   40.7489 C.3     185      M_A    0.0000
   3833 C          45.1914   38.2996   39.9577 C.2     185      M_A    0.0000
   3834 O          45.1893   38.5256   38.8504 O.2     185      M_A    0.0000
   3835 O          44.1668   38.4330   40.6950 O.3     185      M_A    0.0000
   3836 C          43.0764   38.7871   40.0388 C.3     185      M_A    0.0000
   3837 H          46.7523   36.5504   42.1294 H       185      M_A    0.0000
   3838 H          45.1722   36.8546   42.0049 H       185      M_A    0.0000
   3839 H          46.3959   38.6618   41.4350 H       185      M_A    0.0000
   3840 H          42.3160   38.8320   40.7006 H       185      M_A    0.0000
   3841 H          42.8475   38.0999   39.3349 H       185      M_A    0.0000
   3842 H          43.1961   39.7008   39.6257 H       185      M_A    0.0000
   3843 C          47.5850   37.8961   40.0519 C.3     186      M_A    0.0000
   3844 C          48.4104   39.0361   40.2010 C.3     186      M_A    0.0000
   3845 C          47.6284   40.1921   40.4069 C.2     186      M_A    0.0000
   3846 O          47.6728   41.1599   39.8250 O.2     186      M_A    0.0000
   3847 O          46.8851   40.0267   41.4223 O.3     186      M_A    0.0000
   3848 C          46.1104   41.0615   41.6942 C.3     186      M_A    0.0000
   3849 H          47.4066   37.7330   39.0679 H       186      M_A    0.0000
   3850 H          48.0851   37.0771   40.3771 H       186      M_A    0.0000
   3851 H          48.9364   38.9175   41.0614 H       186      M_A    0.0000
   3852 H          45.5375   40.8208   42.4893 H       186      M_A    0.0000
   3853 H          45.5036   41.2649   40.9128 H       186      M_A    0.0000
   3854 H          46.6708   41.8664   41.9349 H       186      M_A    0.0000
   3855 C          49.4379   39.1537   39.1626 C.3     187      M_A    0.0000
   3856 C          50.3953   40.1829   39.3279 C.3     187      M_A    0.0000
   3857 C          50.5409   40.5114   40.6921 C.2     187      M_A    0.0000
   3858 O          50.4582   41.5364   41.1609 O.2     187      M_A    0.0000
   3859 O          50.8643   39.4732   41.3468 O.3     187      M_A    0.0000
   3860 C          51.0219   39.6830   42.6414 C.3     187      M_A    0.0000
   3861 H          48.9708   39.2653   38.2704 H       187      M_A    0.0000
   3862 H          49.9135   38.2605   39.1108 H       187      M_A    0.0000
   3863 H          51.2960   39.8047   39.0506 H       187      M_A    0.0000
   3864 H          51.2408   38.7986   43.0754 H       187      M_A    0.0000
   3865 H          50.1685   40.0368   43.0496 H       187      M_A    0.0000
   3866 H          51.7899   40.3184   42.8035 H       187      M_A    0.0000
   3867 C          50.1897   41.3224   38.4294 C.3     188      M_A    0.0000
   3868 C          51.3492   42.0087   37.9960 C.3     188      M_A    0.0000
   3869 C          52.4513   41.1303   37.9312 C.2     188      M_A    0.0000
   3870 O          53.4621   41.2650   38.4184 O.2     188      M_A    0.0000
   3871 O          52.1763   40.1601   37.1606 O.3     188      M_A    0.0000
   3872 C          53.1529   39.2790   37.0380 C.3     188      M_A    0.0000
   3873 H          49.5616   41.9729   38.8865 H       188      M_A    0.0000
   3874 H          49.6841   40.9781   37.6216 H       188      M_A    0.0000
   3875 H          51.1871   42.2990   37.0365 H       188      M_A    0.0000
   3876 H          52.8272   38.5350   36.4393 H       188      M_A    0.0000
   3877 H          53.3898   38.8852   37.9375 H       188      M_A    0.0000
   3878 H          53.9601   39.7069   36.6076 H       188      M_A    0.0000
   3879 C          51.5904   43.2618   38.7167 C.3     189      M_A    0.0000
   3880 C          51.3592   44.4616   38.0026 C.3     189      M_A    0.0000
   3881 C          52.4624   45.3325   38.1240 C.2     189      M_A    0.0000
   3882 O          52.4483   46.4101   38.4642 O.2     189      M_A    0.0000
   3883 O          53.5119   44.7482   37.7137 O.3     189      M_A    0.0000
   3884 C          54.6031   45.4886   37.7911 C.3     189      M_A    0.0000
   3885 H          52.5444   43.2487   39.0578 H       189      M_A    0.0000
   3886 H          51.0055   43.2477   39.5440 H       189      M_A    0.0000
   3887 H          51.3195   44.2229   37.0163 H       189      M_A    0.0000
   3888 H          55.3819   44.9284   37.4782 H       189      M_A    0.0000
   3889 H          54.7741   45.7689   38.7463 H       189      M_A    0.0000
   3890 H          54.5246   46.2942   37.1872 H       189      M_A    0.0000
   3891 C          50.0531   45.0653   38.2811 C.3     190      M_A    0.0000
   3892 C          49.9935   46.4793   38.2870 C.3     190      M_A    0.0000
   3893 C          51.2044   47.0256   38.7619 C.2     190      M_A    0.0000
   3894 O          51.3350   47.7725   39.5999 O.2     190      M_A    0.0000
   3895 O          52.1673   46.6089   38.0476 O.3     190      M_A    0.0000
   3896 C          53.3488   47.0679   38.4196 C.3     190      M_A    0.0000
   3897 H          49.7261   44.7085   39.1713 H       190      M_A    0.0000
   3898 H          49.4050   44.7067   37.5897 H       190      M_A    0.0000
   3899 H          49.9292   46.7827   37.3200 H       190      M_A    0.0000
   3900 H          54.0462   46.6551   37.8184 H       190      M_A    0.0000
   3901 H          53.5491   46.7999   39.3726 H       190      M_A    0.0000
   3902 H          53.3859   48.0713   38.3116 H       190      M_A    0.0000
   3903 C          48.7800   47.0108   38.9138 C.3     191      M_A    0.0000
   3904 C          48.9585   48.0049   39.9052 C.3     191      M_A    0.0000
   3905 C          50.3086   48.0661   40.3098 C.2     191      M_A    0.0000
   3906 O          50.7097   48.0018   41.3644 O.2     191      M_A    0.0000
   3907 O          51.0451   48.2865   39.2998 O.3     191      M_A    0.0000
   3908 C          52.3337   48.3587   39.5812 C.3     191      M_A    0.0000
   3909 H          48.2617   46.2323   39.3037 H       191      M_A    0.0000
   3910 H          48.1979   47.3804   38.1713 H       191      M_A    0.0000
   3911 H          48.7735   48.9030   39.4688 H       191      M_A    0.0000
   3912 H          52.8336   48.4993   38.7159 H       191      M_A    0.0000
   3913 H          52.6540   47.4968   39.9991 H       191      M_A    0.0000
   3914 H          52.5173   49.1443   40.1887 H       191      M_A    0.0000
   3915 C          47.9825   47.9250   40.9956 C.3     192      M_A    0.0000
   3916 C          48.4968   47.7032   42.2954 C.3     192      M_A    0.0000
   3917 C          48.7929   48.9287   42.9283 C.2     192      M_A    0.0000
   3918 O          49.7720   49.2336   43.4033 O.2     192      M_A    0.0000
   3919 O          47.7500   49.6514   42.9636 O.3     192      M_A    0.0000
   3920 C          47.9310   50.8264   43.5394 C.3     192      M_A    0.0000
   3921 H          47.3150   47.1980   40.7664 H       192      M_A    0.0000
   3922 H          47.4554   48.7904   40.9883 H       192      M_A    0.0000
   3923 H          47.7505   47.2943   42.8495 H       192      M_A    0.0000
   3924 H          47.0615   51.3358   43.4866 H       192      M_A    0.0000
   3925 H          48.6410   51.3543   43.0521 H       192      M_A    0.0000
   3926 H          48.1740   50.7072   44.5123 H       192      M_A    0.0000
   3927 C          49.5675   46.7034   42.3376 C.3     193      M_A    0.0000
   3928 C          49.1961   45.3616   42.0831 C.3     193      M_A    0.0000
   3929 C          49.0758   45.1341   40.6960 C.2     193      M_A    0.0000
   3930 O          48.1877   44.6987   40.1494 O.2     193      M_A    0.0000
   3931 O          50.1695   45.4254   40.1214 O.3     193      M_A    0.0000
   3932 C          50.1523   45.2455   38.8129 C.3     193      M_A    0.0000
   3933 H          50.0181   46.7645   43.2431 H       193      M_A    0.0000
   3934 H          50.2693   46.9890   41.6648 H       193      M_A    0.0000
   3935 H          49.9685   44.7731   42.3804 H       193      M_A    0.0000
   3936 H          51.0469   45.5359   38.4473 H       193      M_A    0.0000
   3937 H          49.4334   45.8125   38.3866 H       193      M_A    0.0000
   3938 H          50.0185   44.2687   38.5942 H       193      M_A    0.0000
   3939 C          48.0622   44.9055   42.8918 C.3     194      M_A    0.0000
   3940 C          47.5313   43.6306   42.5820 C.3     194      M_A    0.0000
   3941 C          46.8950   43.6500   41.3231 C.2     194      M_A    0.0000
   3942 O          45.8403   43.3207   41.0852 O.2     194      M_A    0.0000
   3943 O          47.7188   44.0327   40.4366 O.3     194      M_A    0.0000
   3944 C          47.2103   44.0849   39.2186 C.3     194      M_A    0.0000
   3945 H          47.3298   45.6027   42.8264 H       194      M_A    0.0000
   3946 H          48.3623   44.9160   43.8595 H       194      M_A    0.0000
   3947 H          48.3161   42.9958   42.4705 H       194      M_A    0.0000
   3948 H          47.9261   44.4310   38.5972 H       194      M_A    0.0000
   3949 H          46.4262   44.7208   39.1888 H       194      M_A    0.0000
   3950 H          46.9382   43.1621   38.9116 H       194      M_A    0.0000
   3951 C          46.7445   43.0446   43.6708 C.3     195      M_A    0.0000
   3952 C          45.9267   41.9376   43.3410 C.3     195      M_A    0.0000
   3953 C          46.5027   41.1891   42.2931 C.2     195      M_A    0.0000
   3954 O          46.0143   40.8886   41.3192 O.2     195      M_A    0.0000
   3955 O          47.6684   40.8158   42.6287 O.3     195      M_A    0.0000
   3956 C          48.2912   40.1062   41.7048 C.3     195      M_A    0.0000
   3957 H          46.1750   43.7781   44.0761 H       195      M_A    0.0000
   3958 H          47.3964   42.7734   44.3976 H       195      M_A    0.0000
   3959 H          45.9270   41.3130   44.1417 H       195      M_A    0.0000
   3960 H          49.2146   39.8895   42.0490 H       195      M_A    0.0000
   3961 H          48.3847   40.6392   40.8519 H       195      M_A    0.0000
   3962 H          47.8002   39.2399   41.5367 H       195      M_A    0.0000
   3963 C          44.5155   42.2877   43.1565 C.3     196      M_A    0.0000
   3964 C          43.5812   41.2274   43.2332 C.3     196      M_A    0.0000
   3965 C          44.0798   40.1833   44.0404 C.2     196      M_A    0.0000
   3966 O          44.1700   39.0907   43.7660 O.2     196      M_A    0.0000
   3967 O          44.3591   40.6344   45.1935 O.3     196      M_A    0.0000
   3968 C          44.8375   39.7251   46.0237 C.3     196      M_A    0.0000
   3969 H          44.4231   42.7571   42.2633 H       196      M_A    0.0000
   3970 H          44.2872   42.9851   43.8553 H       196      M_A    0.0000
   3971 H          42.7672   41.5777   43.7290 H       196      M_A    0.0000
   3972 H          45.0601   40.1849   46.8939 H       196      M_A    0.0000
   3973 H          45.6833   39.3164   45.6524 H       196      M_A    0.0000
   3974 H          44.1430   39.0147   46.2050 H       196      M_A    0.0000
   3975 C          43.0588   40.8131   41.9281 C.3     197      M_A    0.0000
   3976 C          41.8170   40.1340   41.9258 C.3     197      M_A    0.0000
   3977 C          40.9076   40.7588   42.8049 C.2     197      M_A    0.0000
   3978 O          40.3231   40.2738   43.6418 O.2     197      M_A    0.0000
   3979 O          40.7664   41.9763   42.4751 O.3     197      M_A    0.0000
   3980 C          39.9303   42.6475   43.2467 C.3     197      M_A    0.0000
   3981 H          43.7607   40.2376   41.4776 H       197      M_A    0.0000
   3982 H          42.9841   41.6474   41.3579 H       197      M_A    0.0000
   3983 H          41.4116   40.2494   41.0019 H       197      M_A    0.0000
   3984 H          39.9137   43.6049   42.9283 H       197      M_A    0.0000
   3985 H          40.2457   42.6349   44.2061 H       197      M_A    0.0000
   3986 H          38.9979   42.2675   43.1684 H       197      M_A    0.0000
   3987 C          41.9440   38.6827   42.0860 C.3     198      M_A    0.0000
   3988 C          40.7407   37.9386   42.1230 C.3     198      M_A    0.0000
   3989 C          40.3136   37.6193   40.8169 C.2     198      M_A    0.0000
   3990 O          39.2995   37.8212   40.3609 O.2     198      M_A    0.0000
   3991 O          41.2305   36.9812   40.2144 O.3     198      M_A    0.0000
   3992 C          40.9214   36.6390   38.9765 C.3     198      M_A    0.0000
   3993 H          42.4782   38.5058   42.9286 H       198      M_A    0.0000
   3994 H          42.5205   38.3476   41.3230 H       198      M_A    0.0000
   3995 H          40.9517   37.0450   42.5568 H       198      M_A    0.0000
   3996 H          41.7203   36.1720   38.5742 H       198      M_A    0.0000
   3997 H          40.7176   37.4587   38.4226 H       198      M_A    0.0000
   3998 H          40.1407   35.9984   38.9736 H       198      M_A    0.0000
   3999 C          39.7155   38.5275   42.9891 C.3     199      M_A    0.0000
   4000 C          39.0517   37.6489   43.8782 C.3     199      M_A    0.0000
   4001 C          38.0870   36.8823   43.1911 C.2     199      M_A    0.0000
   4002 O          36.9923   36.7714   43.4487 O.2     199      M_A    0.0000
   4003 O          38.6454   36.2450   42.2462 O.3     199      M_A    0.0000
   4004 C          37.8165   35.4965   41.5408 C.3     199      M_A    0.0000
   4005 H          39.0346   38.9908   42.3988 H       199      M_A    0.0000
   4006 H          40.1620   39.2658   43.5205 H       199      M_A    0.0000
   4007 H          39.7380   36.9760   44.2059 H       199      M_A    0.0000
   4008 H          38.3445   35.0622   40.7986 H       199      M_A    0.0000
   4009 H          37.0910   36.0645   41.1270 H       199      M_A    0.0000
   4010 H          37.4200   34.7701   42.1195 H       199      M_A    0.0000
   4011 C          38.5753   38.3034   45.0999 C.3     200      M_A    0.0000
   4012 C          37.3603   37.8251   45.6460 C.3     200      M_A    0.0000
   4013 C          36.6881   37.0026   44.7176 C.2     200      M_A    0.0000
   4014 O          35.6206   37.1052   44.3611 O.2     200      M_A    0.0000
   4015 O          37.4457   36.0445   44.3725 O.3     200      M_A    0.0000
   4016 C          36.9004   35.2175   43.4987 C.3     200      M_A    0.0000
   4017 H          38.4955   39.2961   44.9132 H       200      M_A    0.0000
   4018 H          39.3101   38.2148   45.7919 H       200      M_A    0.0000
   4019 H          37.5980   37.2104   46.4186 H       200      M_A    0.0000
   4020 H          37.5875   34.5172   43.2625 H       200      M_A    0.0000
   4021 H          36.6443   35.7112   42.6556 H       200      M_A    0.0000
   4022 H          36.0989   34.7562   43.9043 H       200      M_A    0.0000
   4023 C          36.5413   38.8750   46.2583 C.3     201      M_A    0.0000
   4024 C          36.6873   39.0640   47.6533 C.3     201      M_A    0.0000
   4025 C          36.5347   37.8407   48.3391 C.2     201      M_A    0.0000
   4026 O          35.8330   37.6212   49.1974 O.2     201      M_A    0.0000
   4027 O          37.3764   36.9990   47.8986 O.3     201      M_A    0.0000
   4028 C          37.3079   35.8160   48.4824 C.3     201      M_A    0.0000
   4029 H          35.5704   38.6814   46.0422 H       201      M_A    0.0000
   4030 H          36.7591   39.7409   45.7794 H       201      M_A    0.0000
   4031 H          37.6496   39.3417   47.8211 H       201      M_A    0.0000
   4032 H          37.9862   35.2123   48.0425 H       201      M_A    0.0000
   4033 H          36.3909   35.4116   48.3570 H       201      M_A    0.0000
   4034 H          37.5367   35.8943   49.4629 H       201      M_A    0.0000
   4035 C          35.8931   40.1781   48.1786 C.3     202      M_A    0.0000
   4036 C          36.6045   41.3347   48.5776 C.3     202      M_A    0.0000
   4037 C          37.9631   41.0290   48.8034 C.2     202      M_A    0.0000
   4038 O          38.5673   41.2472   49.7332 O.2     202      M_A    0.0000
   4039 O          38.4640   40.5203   47.7541 O.3     202      M_A    0.0000
   4040 C          39.7397   40.1976   47.8707 C.3     202      M_A    0.0000
   4041 H          35.3442   39.8323   48.9570 H       202      M_A    0.0000
   4042 H          35.2216   40.4296   47.4627 H       202      M_A    0.0000
   4043 H          36.6062   41.9749   47.7894 H       202      M_A    0.0000
   4044 H          40.0334   39.7722   47.0041 H       202      M_A    0.0000
   4045 H          39.8691   39.5279   48.6156 H       202      M_A    0.0000
   4046 H          40.2983   41.0241   48.0276 H       202      M_A    0.0000
   4047 C          35.9461   42.0848   49.6508 C.3     203      M_A    0.0000
   4048 C          34.7341   42.7371   49.3209 C.3     203      M_A    0.0000
   4049 C          33.6572   41.8261   49.3448 C.2     203      M_A    0.0000
   4050 O          32.9078   41.6320   48.5215 O.2     203      M_A    0.0000
   4051 O          33.5886   41.2795   50.4883 O.3     203      M_A    0.0000
   4052 C          32.6062   40.4044   50.6065 C.3     203      M_A    0.0000
   4053 H          36.6079   42.7616   50.0121 H       203      M_A    0.0000
   4054 H          35.7795   41.4351   50.4103 H       203      M_A    0.0000
   4055 H          34.5355   43.3992   50.0648 H       203      M_A    0.0000
   4056 H          32.6571   40.0026   51.5307 H       203      M_A    0.0000
   4057 H          32.7093   39.6624   49.9290 H       203      M_A    0.0000
   4058 H          31.7125   40.8637   50.5054 H       203      M_A    0.0000
   4059 C          34.8254   43.5651   48.1150 C.3     204      M_A    0.0000
   4060 C          34.3941   44.9081   48.2308 C.3     204      M_A    0.0000
   4061 C          32.9952   44.9961   48.0706 C.2     204      M_A    0.0000
   4062 O          32.4301   45.6608   47.3523 O.2     204      M_A    0.0000
   4063 O          32.4222   44.2538   48.9260 O.3     204      M_A    0.0000
   4064 C          31.1034   44.2691   48.8517 C.3     204      M_A    0.0000
   4065 H          34.3049   43.1041   47.3780 H       204      M_A    0.0000
   4066 H          35.7931   43.5499   47.8151 H       204      M_A    0.0000
   4067 H          34.5683   45.1996   49.1878 H       204      M_A    0.0000
   4068 H          30.7455   43.6265   49.5425 H       204      M_A    0.0000
   4069 H          30.7963   43.9622   47.9398 H       204      M_A    0.0000
   4070 H          30.7505   45.1923   49.0595 H       204      M_A    0.0000
   4071 C          35.1761   45.8452   47.4196 C.3     205      M_A    0.0000
   4072 C          34.8480   47.2169   47.5377 C.3     205      M_A    0.0000
   4073 C          33.5088   47.4421   47.1557 C.2     205      M_A    0.0000
   4074 O          33.1315   48.1854   46.3926 O.2     205      M_A    0.0000
   4075 O          32.7387   46.7225   47.8630 O.3     205      M_A    0.0000
   4076 C          31.4574   46.8643   47.5747 C.3     205      M_A    0.0000
   4077 H          35.0993   45.5606   46.4502 H       205      M_A    0.0000
   4078 H          36.1500   45.7125   47.6658 H       205      M_A    0.0000
   4079 H          34.8831   47.4516   48.5251 H       205      M_A    0.0000
   4080 H          30.9347   46.2304   48.1606 H       205      M_A    0.0000
   4081 H          31.2828   46.6248   46.6091 H       205      M_A    0.0000
   4082 H          31.1549   47.8072   47.7729 H       205      M_A    0.0000
   4083 C          35.8326   48.1089   46.9190 C.3     206      M_A    0.0000
   4084 C          35.5475   48.5606   45.6084 C.2     206      M_A    0.0000
   4085 C          34.2940   49.2066   45.5673 C.2     206      M_A    0.0000
   4086 O          33.4310   48.9805   44.8735 O.2     206      M_A    0.0000
   4087 O          34.2838   50.1670   46.3970 O.3     206      M_A    0.0000
   4088 C          33.1440   50.8338   46.4316 C.3     206      M_A    0.0000
   4089 H          36.7304   47.6393   46.9280 H       206      M_A    0.0000
   4090 H          35.9377   48.9086   47.5323 H       206      M_A    0.0000
   4091 H          36.2240   49.2841   45.3847 H       206      M_A    0.0000
   4092 H          33.2227   51.5478   47.1403 H       206      M_A    0.0000
   4093 H          32.3815   50.2196   46.6798 H       206      M_A    0.0000
   4094 H          32.9718   51.2817   45.5431 H       206      M_A    0.0000
   4095 C          40.6656   50.8302   46.1558 C.2     207      M_A    0.0000
   4096 C          41.9994   50.1136   46.4000 C.3     207      M_A    0.0000
   4097 C          42.7967   50.8192   47.4969 C.2     207      M_A    0.0000
   4098 O          43.9517   51.2208   47.4311 O.2     207      M_A    0.0000
   4099 O          42.0448   50.8779   48.6471 O.3     207      M_A    0.0000
   4100 C          42.7041   51.5257   49.7401 C.3     207      M_A    0.0000
   4101 H          40.6384   51.7630   46.7344 H       207      M_A    0.0000
   4102 H          40.6060   51.1347   45.1026 H       207      M_A    0.0000
   4103 H          41.7662   49.1199   46.8112 H       207      M_A    0.0000
   4104 H          42.0100   51.5520   50.5846 H       207      M_A    0.0000
   4105 H          42.9663   52.5547   49.4749 H       207      M_A    0.0000
   4106 H          43.5924   50.9603   50.0380 H       207      M_A    0.0000
   4107 C          42.8067   49.8063   45.0673 C.3     208      M_A    0.0000
   4108 C          44.0579   50.6543   44.8077 C.3     208      M_A    0.0000
   4109 C          45.0180   50.5745   45.9946 C.2     208      M_A    0.0000
   4110 O          45.5023   51.5098   46.6195 O.2     208      M_A    0.0000
   4111 O          45.3472   49.2606   46.2327 O.3     208      M_A    0.0000
   4112 C          46.2452   49.0764   47.3321 C.3     208      M_A    0.0000
   4113 H          42.1145   49.9039   44.2206 H       208      M_A    0.0000
   4114 H          43.0883   48.7455   45.0971 H       208      M_A    0.0000
   4115 H          44.6000   50.1894   43.9705 H       208      M_A    0.0000
   4116 H          46.4089   48.0026   47.4574 H       208      M_A    0.0000
   4117 H          45.8082   49.4704   48.2550 H       208      M_A    0.0000
   4118 H          47.2079   49.5522   47.1212 H       208      M_A    0.0000
   4119 C          43.7333   52.1226   44.2969 C.3     209      M_A    0.0000
   4120 C          43.1839   52.2512   42.8708 C.3     209      M_A    0.0000
   4121 C          44.2924   52.0198   41.8439 C.2     209      M_A    0.0000
   4122 O          44.6119   52.7575   40.9201 O.2     209      M_A    0.0000
   4123 O          44.8597   50.7839   42.0497 O.3     209      M_A    0.0000
   4124 C          45.9160   50.4698   41.1362 C.3     209      M_A    0.0000
   4125 H          44.6454   52.7259   44.3950 H       209      M_A    0.0000
   4126 H          43.0140   52.5588   45.0024 H       209      M_A    0.0000
   4127 H          42.4755   51.4232   42.7174 H       209      M_A    0.0000
   4128 H          46.3189   49.4910   41.4104 H       209      M_A    0.0000
   4129 H          46.7201   51.2086   41.2103 H       209      M_A    0.0000
   4130 H          45.5306   50.4127   40.1136 H       209      M_A    0.0000
   4131 C          42.3124   53.5592   42.6432 C.3     210      M_A    0.0000
   4132 C          42.6099   54.3751   41.3791 C.3     210      M_A    0.0000
   4133 C          43.1130   53.4660   40.2577 C.2     210      M_A    0.0000
   4134 O          44.1408   53.5951   39.6046 O.2     210      M_A    0.0000
   4135 O          42.1828   52.4838   40.0094 O.3     210      M_A    0.0000
   4136 C          42.5617   51.5736   38.9716 C.3     210      M_A    0.0000
   4137 H          42.4231   54.1995   43.5283 H       210      M_A    0.0000
   4138 H          41.2593   53.2486   42.6339 H       210      M_A    0.0000
   4139 H          41.6515   54.7743   41.0145 H       210      M_A    0.0000
   4140 H          41.7766   50.8177   38.8830 H       210      M_A    0.0000
   4141 H          43.5000   51.0706   39.2257 H       210      M_A    0.0000
   4142 H          42.6466   52.0999   38.0159 H       210      M_A    0.0000
   4143 C          43.4935   55.6662   41.6518 C.3     211      M_A    0.0000
   4144 C          43.3931   56.8004   40.6245 C.3     211      M_A    0.0000
   4145 C          42.8732   56.2715   39.2877 C.2     211      M_A    0.0000
   4146 O          43.3891   56.4093   38.1856 O.2     211      M_A    0.0000
   4147 O          41.6553   55.6611   39.4767 O.3     211      M_A    0.0000
   4148 C          41.0809   55.1270   38.2793 C.3     211      M_A    0.0000
   4149 H          44.5401   55.3480   41.7466 H       211      M_A    0.0000
   4150 H          43.2108   56.0484   42.6415 H       211      M_A    0.0000
   4151 H          42.6159   57.4944   40.9784 H       211      M_A    0.0000
   4152 H          40.1417   54.6349   38.5464 H       211      M_A    0.0000
   4153 H          41.7474   54.3826   37.8326 H       211      M_A    0.0000
   4154 H          40.8622   55.9313   37.5702 H       211      M_A    0.0000
   4155 C          44.7038   57.6928   40.5359 C.3     212      M_A    0.0000
   4156 C          44.9872   58.6222   41.7225 C.3     212      M_A    0.0000
   4157 C          45.2827   60.0411   41.2363 C.2     212      M_A    0.0000
   4158 O          46.2595   60.7283   41.5071 O.2     212      M_A    0.0000
   4159 O          44.2257   60.4998   40.4855 O.3     212      M_A    0.0000
   4160 C          44.4053   61.8263   39.9784 C.3     212      M_A    0.0000
   4161 H          44.6514   58.2828   39.6114 H       212      M_A    0.0000
   4162 H          45.5522   57.0089   40.4014 H       212      M_A    0.0000
   4163 H          44.0551   58.7073   42.3011 H       212      M_A    0.0000
   4164 H          43.5320   62.0755   39.3695 H       212      M_A    0.0000
   4165 H          45.2959   61.8776   39.3442 H       212      M_A    0.0000
   4166 H          44.4703   62.5434   40.8024 H       212      M_A    0.0000
   4167 C          46.0366   58.0282   42.7559 C.3     213      M_A    0.0000
   4168 C          47.1518   58.9706   43.2253 C.3     213      M_A    0.0000
   4169 C          47.2176   60.2120   42.3355 C.2     213      M_A    0.0000
   4170 O          48.1993   60.6534   41.7516 O.2     213      M_A    0.0000
   4171 O          45.9965   60.8449   42.3376 O.3     213      M_A    0.0000
   4172 C          45.9520   62.0245   41.5280 C.3     213      M_A    0.0000
   4173 H          46.4798   57.1278   42.3105 H       213      M_A    0.0000
   4174 H          45.4689   57.6771   43.6276 H       213      M_A    0.0000
   4175 H          46.8654   59.3468   44.2190 H       213      M_A    0.0000
   4176 H          44.9349   62.4238   41.5698 H       213      M_A    0.0000
   4177 H          46.1875   61.7846   40.4865 H       213      M_A    0.0000
   4178 H          46.6385   62.7813   41.9197 H       213      M_A    0.0000
   4179 C          48.5396   58.2380   43.4691 C.3     214      M_A    0.0000
   4180 C          49.8018   58.9839   43.0190 C.3     214      M_A    0.0000
   4181 C          49.8668   59.0603   41.4936 C.2     214      M_A    0.0000
   4182 O          50.7947   58.7136   40.7736 O.2     214      M_A    0.0000
   4183 O          48.7306   59.6696   41.0146 O.3     214      M_A    0.0000
   4184 C          48.6922   59.7887   39.5886 C.3     214      M_A    0.0000
   4185 H          48.4972   57.2574   42.9770 H       214      M_A    0.0000
   4186 H          48.6087   58.0257   44.5441 H       214      M_A    0.0000
   4187 H          49.7015   60.0275   43.3530 H       214      M_A    0.0000
   4188 H          47.7383   60.2475   39.3144 H       214      M_A    0.0000
   4189 H          48.7496   58.8017   39.1192 H       214      M_A    0.0000
   4190 H          49.5023   60.4358   39.2386 H       214      M_A    0.0000
   4191 C          51.1271   58.4715   43.7283 C.3     215      M_A    0.0000
   4192 C          52.3727   58.3317   42.8446 C.3     215      M_A    0.0000
   4193 C          52.8323   59.6304   42.4101 C.2     215      M_A    0.0000
   4194 O          52.9770   59.9932   41.3209 O.2     215      M_A    0.0000
   4195 O          53.1493   60.3484   43.4460 O.3     215      M_A    0.0000
   4196 C          53.5915   61.5894   43.1395 C.3     215      M_A    0.0000
   4197 H          50.9060   57.5082   44.2066 H       215      M_A    0.0000
   4198 H          51.3431   59.1662   44.5507 H       215      M_A    0.0000
   4199 H          53.1651   57.9328   43.3870 H       215      M_A    0.0000
   4200 H          53.7807   62.0877   44.0247 H       215      M_A    0.0000
   4201 H          52.8691   62.1132   42.6169 H       215      M_A    0.0000
   4202 H          54.4715   61.5345   42.5992 H       215      M_A    0.0000
   4203 C          52.1376   57.3360   41.7467 C.3     216      M_A    0.0000
   4204 C          53.3138   56.7634   41.1231 C.3     216      M_A    0.0000
   4205 C          54.4756   57.5824   41.3803 C.2     216      M_A    0.0000
   4206 O          55.2124   58.0164   40.6007 O.2     216      M_A    0.0000
   4207 O          54.6396   57.7140   42.6628 O.3     216      M_A    0.0000
   4208 C          55.7072   58.4706   43.0052 C.3     216      M_A    0.0000
   4209 H          51.5470   57.7887   41.0237 H       216      M_A    0.0000
   4210 H          51.5564   56.5742   42.1443 H       216      M_A    0.0000
   4211 H          53.5088   55.8610   41.6014 H       216      M_A    0.0000
   4212 H          55.7285   58.5435   44.0356 H       216      M_A    0.0000
   4213 H          55.6184   59.4227   42.6113 H       216      M_A    0.0000
   4214 H          56.5831   58.0205   42.6898 H       216      M_A    0.0000
   4215 C          53.1046   56.3830   39.6866 C.3     217      M_A    0.0000
   4216 C          54.1378   55.5763   39.0687 C.3     217      M_A    0.0000
   4217 C          55.3907   55.7292   39.7712 C.2     217      M_A    0.0000
   4218 O          56.4156   56.0193   39.3190 O.2     217      M_A    0.0000
   4219 O          55.2299   55.4117   41.0211 O.3     217      M_A    0.0000
   4220 C          56.3535   55.5256   41.7656 C.3     217      M_A    0.0000
   4221 H          52.9711   57.2546   39.1398 H       217      M_A    0.0000
   4222 H          52.1993   55.8790   39.6327 H       217      M_A    0.0000
   4223 H          53.8733   54.5797   39.2029 H       217      M_A    0.0000
   4224 H          56.1139   55.2880   42.7421 H       217      M_A    0.0000
   4225 H          56.7072   56.4972   41.7423 H       217      M_A    0.0000
   4226 H          57.0738   54.8622   41.4336 H       217      M_A    0.0000
   4227 C          54.2152   55.7411   37.5791 C.3     218      M_A    0.0000
   4228 C          53.5986   54.7046   36.7756 C.3     218      M_A    0.0000
   4229 C          54.2508   53.4346   36.9960 C.2     218      M_A    0.0000
   4230 O          54.6937   52.7270   36.1946 O.2     218      M_A    0.0000
   4231 O          54.2086   53.1377   38.2605 O.3     218      M_A    0.0000
   4232 C          54.7992   51.9604   38.5683 C.3     218      M_A    0.0000
   4233 H          55.2150   55.8342   37.3179 H       218      M_A    0.0000
   4234 H          53.7811   56.6551   37.3498 H       218      M_A    0.0000
   4235 H          52.6295   54.5749   37.1293 H       218      M_A    0.0000
   4236 H          54.7447   51.8349   39.5924 H       218      M_A    0.0000
   4237 H          55.7958   51.9713   38.2922 H       218      M_A    0.0000
   4238 H          54.2987   51.1775   38.1146 H       218      M_A    0.0000
   4239 C          53.4187   55.0902   35.3366 C.3     219      M_A    0.0000
   4240 C          52.7507   54.1286   34.4827 C.3     219      M_A    0.0000
   4241 C          52.6682   52.8416   35.1332 C.2     219      M_A    0.0000
   4242 O          53.0191   51.8217   34.7139 O.2     219      M_A    0.0000
   4243 O          52.0530   52.9681   36.2710 O.3     219      M_A    0.0000
   4244 C          51.9278   51.8105   36.9594 C.3     219      M_A    0.0000
   4245 H          54.3532   55.3124   34.9444 H       219      M_A    0.0000
   4246 H          52.8914   55.9836   35.3232 H       219      M_A    0.0000
   4247 H          51.7646   54.4413   34.3776 H       219      M_A    0.0000
   4248 H          51.4621   52.0225   37.8570 H       219      M_A    0.0000
   4249 H          52.8579   51.4056   37.1607 H       219      M_A    0.0000
   4250 H          51.3395   51.1416   36.4343 H       219      M_A    0.0000
   4251 C          53.2821   54.1033   33.0795 C.3     220      M_A    0.0000
   4252 C          52.4974   53.3814   32.0981 C.3     220      M_A    0.0000
   4253 C          52.0323   52.1266   32.6420 C.2     220      M_A    0.0000
   4254 O          52.1674   51.0724   32.1842 O.2     220      M_A    0.0000
   4255 O          51.3456   52.3490   33.7227 O.3     220      M_A    0.0000
   4256 C          50.8668   51.2283   34.3095 C.3     220      M_A    0.0000
   4257 H          54.2443   53.7163   33.1075 H       220      M_A    0.0000
   4258 H          53.3873   55.0895   32.7747 H       220      M_A    0.0000
   4259 H          51.6352   53.9356   31.9235 H       220      M_A    0.0000
   4260 H          50.3713   51.5073   35.1722 H       220      M_A    0.0000
   4261 H          51.6420   50.5943   34.5677 H       220      M_A    0.0000
   4262 H          50.1942   50.7537   33.6836 H       220      M_A    0.0000
   4263 C          53.1574   53.2904   30.7534 C.3     221      M_A    0.0000
   4264 C          52.3817   52.6915   29.6858 C.3     221      M_A    0.0000
   4265 C          51.7614   53.7123   28.8735 C.2     221      M_A    0.0000
   4266 O          50.6404   53.8050   28.6016 O.2     221      M_A    0.0000
   4267 O          52.6747   54.5081   28.4027 O.3     221      M_A    0.0000
   4268 C          52.1887   55.5038   27.6269 C.3     221      M_A    0.0000
   4269 H          54.0489   52.7721   30.8677 H       221      M_A    0.0000
   4270 H          53.4284   54.2539   30.4802 H       221      M_A    0.0000
   4271 H          53.0499   52.2107   29.0506 H       221      M_A    0.0000
   4272 H          52.9830   56.0965   27.3348 H       221      M_A    0.0000
   4273 H          51.5232   56.0881   28.1611 H       221      M_A    0.0000
   4274 H          51.7411   55.1143   26.7801 H       221      M_A    0.0000
   4275 C          51.4639   51.5998   30.1524 C.3     222      M_A    0.0000
   4276 C          51.1366   50.5674   29.1895 C.3     222      M_A    0.0000
   4277 C          52.3196   49.8285   28.8139 C.2     222      M_A    0.0000
   4278 O          52.7121   49.6333   27.7429 O.2     222      M_A    0.0000
   4279 O          52.8723   49.3234   29.8761 O.3     222      M_A    0.0000
   4280 C          53.9947   48.6114   29.6254 C.3     222      M_A    0.0000
   4281 H          50.5911   52.0404   30.4992 H       222      M_A    0.0000
   4282 H          51.9055   51.1640   30.9840 H       222      M_A    0.0000
   4283 H          50.5288   49.8758   29.6726 H       222      M_A    0.0000
   4284 H          54.3741   48.2862   30.5297 H       222      M_A    0.0000
   4285 H          54.7061   49.2053   29.1664 H       222      M_A    0.0000
   4286 H          53.7740   47.7842   29.0455 H       222      M_A    0.0000
   4287 C          50.2996   51.0598   28.0453 C.3     223      M_A    0.0000
   4288 C          49.0730   50.3364   27.7763 C.3     223      M_A    0.0000
   4289 C          49.3624   49.0036   27.3005 C.2     223      M_A    0.0000
   4290 O          48.9683   48.5048   26.3335 O.2     223      M_A    0.0000
   4291 O          50.0950   48.3796   28.1739 O.3     223      M_A    0.0000
   4292 C          50.4218   47.1171   27.8149 C.3     223      M_A    0.0000
   4293 H          50.8923   51.0670   27.1937 H       223      M_A    0.0000
   4294 H          50.0750   52.0544   28.2368 H       223      M_A    0.0000
   4295 H          48.5895   50.1987   28.6865 H       223      M_A    0.0000
   4296 H          51.0296   46.7236   28.5521 H       223      M_A    0.0000
   4297 H          50.9463   47.1175   26.9237 H       223      M_A    0.0000
   4298 H          49.5721   46.5321   27.7433 H       223      M_A    0.0000
   4299 C          48.0901   51.1118   26.9489 C.3     224      M_A    0.0000
   4300 C          46.6928   50.7553   27.0925 C.3     224      M_A    0.0000
   4301 C          46.4285   50.2595   28.4233 C.2     224      M_A    0.0000
   4302 O          45.9230   49.2588   28.7096 O.2     224      M_A    0.0000
   4303 O          46.7784   51.1545   29.2982 O.3     224      M_A    0.0000
   4304 C          46.5701   50.7794   30.5810 C.3     224      M_A    0.0000
   4305 H          48.3698   51.0257   25.9535 H       224      M_A    0.0000
   4306 H          48.2134   52.1140   27.1872 H       224      M_A    0.0000
   4307 H          46.1406   51.6332   27.0173 H       224      M_A    0.0000
   4308 H          46.9115   51.5378   31.1940 H       224      M_A    0.0000
   4309 H          47.1011   49.9189   30.7981 H       224      M_A    0.0000
   4310 H          45.5601   50.6446   30.7569 H       224      M_A    0.0000
   4311 C          46.1762   49.8965   25.9755 C.3     225      M_A    0.0000
   4312 C          44.9090   50.2832   25.3884 C.3     225      M_A    0.0000
   4313 C          44.1080   51.0139   26.3431 C.2     225      M_A    0.0000
   4314 O          43.0193   50.7866   26.6625 O.2     225      M_A    0.0000
   4315 O          44.7692   52.0516   26.7616 O.3     225      M_A    0.0000
   4316 C          44.0988   52.8019   27.6655 C.3     225      M_A    0.0000
   4317 H          46.1146   48.9208   26.3228 H       225      M_A    0.0000
   4318 H          46.9052   49.8840   25.2374 H       225      M_A    0.0000
   4319 H          45.1146   50.9653   24.6310 H       225      M_A    0.0000
   4320 H          44.7183   53.5745   27.9601 H       225      M_A    0.0000
   4321 H          43.8595   52.2382   28.4989 H       225      M_A    0.0000
   4322 H          43.2494   53.2073   27.2374 H       225      M_A    0.0000
   4323 C          44.2040   49.1570   24.6908 C.3     226      M_A    0.0000
   4324 C          43.8320   49.3780   23.3077 C.3     226      M_A    0.0000
   4325 C          44.8603   50.1210   22.6169 C.2     226      M_A    0.0000
   4326 O          44.7300   51.0973   22.0096 O.2     226      M_A    0.0000
   4327 O          45.9900   49.4845   22.7047 O.3     226      M_A    0.0000
   4328 C          47.0201   50.1062   22.0867 C.3     226      M_A    0.0000
   4329 H          43.3595   48.9157   25.2431 H       226      M_A    0.0000
   4330 H          44.8224   48.3261   24.7499 H       226      M_A    0.0000
   4331 H          43.8111   48.4490   22.8411 H       226      M_A    0.0000
   4332 H          47.8723   49.5436   22.2443 H       226      M_A    0.0000
   4333 H          47.1699   51.0471   22.4889 H       226      M_A    0.0000
   4334 H          46.8477   50.1626   21.0687 H       226      M_A    0.0000
   4335 C          42.4380   49.9077   23.1401 C.3     227      M_A    0.0000
   4336 C          42.2959   51.1470   22.4025 C.3     227      M_A    0.0000
   4337 C          43.3484   51.2790   21.4220 C.2     227      M_A    0.0000
   4338 O          44.0711   52.1727   21.2871 O.2     227      M_A    0.0000
   4339 O          43.3317   50.2524   20.6252 O.3     227      M_A    0.0000
   4340 C          44.2874   50.2841   19.6686 C.3     227      M_A    0.0000
   4341 H          42.0197   50.0152   24.0834 H       227      M_A    0.0000
   4342 H          41.8834   49.1660   22.6723 H       227      M_A    0.0000
   4343 H          41.4186   51.0782   21.8486 H       227      M_A    0.0000
   4344 H          44.2133   49.4145   19.1156 H       227      M_A    0.0000
   4345 H          45.2282   50.3207   20.0967 H       227      M_A    0.0000
   4346 H          44.1375   51.0887   19.0368 H       227      M_A    0.0000
   4347 C          42.0857   52.3456   23.2808 C.3     228      M_A    0.0000
   4348 C          42.6252   53.6041   22.8062 C.3     228      M_A    0.0000
   4349 C          43.9500   53.4167   22.2618 C.2     228      M_A    0.0000
   4350 O          44.9127   53.9902   22.5504 O.2     228      M_A    0.0000
   4351 O          43.9078   52.5335   21.3093 O.3     228      M_A    0.0000
   4352 C          45.1075   52.2868   20.7356 C.3     228      M_A    0.0000
   4353 H          42.4782   52.1305   24.2168 H       228      M_A    0.0000
   4354 H          41.0628   52.4442   23.4235 H       228      M_A    0.0000
   4355 H          42.0424   53.9056   21.9996 H       228      M_A    0.0000
   4356 H          44.9742   51.5512   20.0224 H       228      M_A    0.0000
   4357 H          45.7822   51.9419   21.4395 H       228      M_A    0.0000
   4358 H          45.4642   53.1370   20.2675 H       228      M_A    0.0000
   4359 C          42.4931   54.7235   23.7969 C.3     229      M_A    0.0000
   4360 C          41.2331   54.8210   24.5062 C.3     229      M_A    0.0000
   4361 C          40.8224   53.5249   24.9940 C.2     229      M_A    0.0000
   4362 O          39.8060   53.0006   24.8174 O.2     229      M_A    0.0000
   4363 O          41.7537   53.0312   25.7542 O.3     229      M_A    0.0000
   4364 C          41.4607   51.8114   26.2599 C.3     229      M_A    0.0000
   4365 H          42.6823   55.6151   23.3011 H       229      M_A    0.0000
   4366 H          43.2642   54.6172   24.4828 H       229      M_A    0.0000
   4367 H          41.4026   55.3892   25.3604 H       229      M_A    0.0000
   4368 H          42.2719   51.4936   26.8152 H       229      M_A    0.0000
   4369 H          41.2994   51.1317   25.4973 H       229      M_A    0.0000
   4370 H          40.6380   51.8687   26.8838 H       229      M_A    0.0000
   4371 C          40.1816   55.5851   23.7563 C.3     230      M_A    0.0000
   4372 C          39.0236   56.0154   24.5140 C.3     230      M_A    0.0000
   4373 C          38.3620   54.8828   25.1191 C.2     230      M_A    0.0000
   4374 O          37.2444   54.5962   25.0312 O.2     230      M_A    0.0000
   4375 O          39.2037   54.2383   25.8709 O.3     230      M_A    0.0000
   4376 C          38.6749   53.1539   26.4825 C.3     230      M_A    0.0000
   4377 H          39.8747   55.0048   22.9529 H       230      M_A    0.0000
   4378 H          40.6452   56.4146   23.3398 H       230      M_A    0.0000
   4379 H          39.3707   56.5833   25.3128 H       230      M_A    0.0000
   4380 H          39.4267   52.6945   27.0222 H       230      M_A    0.0000
   4381 H          38.3164   52.4817   25.7831 H       230      M_A    0.0000
   4382 H          37.9276   53.4391   27.1378 H       230      M_A    0.0000
   4383 C          38.1269   56.9508   23.7571 C.3     231      M_A    0.0000
   4384 C          36.7339   56.9835   24.1554 C.3     231      M_A    0.0000
   4385 C          35.8777   56.6573   23.0387 C.2     231      M_A    0.0000
   4386 O          34.9848   57.2746   22.6377 O.2     231      M_A    0.0000
   4387 O          36.2049   55.4918   22.5658 O.3     231      M_A    0.0000
   4388 C          35.4566   55.0976   21.5102 C.3     231      M_A    0.0000
   4389 H          38.1942   56.7149   22.7490 H       231      M_A    0.0000
   4390 H          38.5309   57.9021   23.8481 H       231      M_A    0.0000
   4391 H          36.5899   56.2137   24.8394 H       231      M_A    0.0000
   4392 H          35.8164   54.1841   21.1883 H       231      M_A    0.0000
   4393 H          35.5403   55.7748   20.7331 H       231      M_A    0.0000
   4394 H          34.4690   54.9802   21.7932 H       231      M_A    0.0000
   4395 C          36.3561   58.2244   24.9101 C.3     232      M_A    0.0000
   4396 C          35.0570   58.7957   24.6167 C.3     232      M_A    0.0000
   4397 C          34.0380   58.1947   25.4456 C.2     232      M_A    0.0000
   4398 O          33.0509   57.7029   25.0951 O.2     232      M_A    0.0000
   4399 O          34.3487   58.3501   26.6979 O.3     232      M_A    0.0000
   4400 C          33.4508   57.8156   27.5569 C.3     232      M_A    0.0000
   4401 H          37.0932   58.9361   24.7473 H       232      M_A    0.0000
   4402 H          36.4084   57.9952   25.9207 H       232      M_A    0.0000
   4403 H          35.0859   59.7939   24.9062 H       232      M_A    0.0000
   4404 H          33.8044   57.9589   28.5171 H       232      M_A    0.0000
   4405 H          33.3520   56.7994   27.3926 H       232      M_A    0.0000
   4406 H          32.5388   58.2946   27.4681 H       232      M_A    0.0000
   4407 C          34.7421   58.8448   23.1503 C.3     233      M_A    0.0000
   4408 C          34.3227   60.1250   22.6161 C.3     233      M_A    0.0000
   4409 C          34.9244   61.2079   23.3590 C.2     233      M_A    0.0000
   4410 O          34.3825   62.1008   23.8571 O.2     233      M_A    0.0000
   4411 O          36.2182   61.0875   23.3322 O.3     233      M_A    0.0000
   4412 C          36.8743   62.0594   24.0063 C.3     233      M_A    0.0000
   4413 H          34.0146   58.1316   22.9540 H       233      M_A    0.0000
   4414 H          35.5896   58.5245   22.6448 H       233      M_A    0.0000
   4415 H          34.7173   60.2040   21.6573 H       233      M_A    0.0000
   4416 H          37.8858   61.8547   23.9559 H       233      M_A    0.0000
   4417 H          36.5907   62.0659   25.0009 H       233      M_A    0.0000
   4418 H          36.7034   62.9799   23.5674 H       233      M_A    0.0000
   4419 C          32.8394   60.2332   22.4158 C.3     234      M_A    0.0000
   4420 C          32.3244   61.5375   22.0500 C.3     234      M_A    0.0000
   4421 C          32.5715   62.4954   23.1026 C.2     234      M_A    0.0000
   4422 O          31.7968   63.1814   23.6206 O.2     234      M_A    0.0000
   4423 O          33.8455   62.5459   23.3544 O.3     234      M_A    0.0000
   4424 C          34.1777   63.4185   24.3330 C.3     234      M_A    0.0000
   4425 H          32.3736   59.9069   23.2835 H       234      M_A    0.0000
   4426 H          32.5789   59.5453   21.6842 H       234      M_A    0.0000
   4427 H          32.8842   61.8751   21.2414 H       234      M_A    0.0000
   4428 H          35.1985   63.3576   24.4809 H       234      M_A    0.0000
   4429 H          33.7033   63.1695   25.2176 H       234      M_A    0.0000
   4430 H          33.9445   64.3847   24.0480 H       234      M_A    0.0000
   4431 C          30.9153   61.5018   21.5353 C.3     235      M_A    0.0000
   4432 C          30.1439   62.7220   21.6621 C.3     235      M_A    0.0000
   4433 C          29.7840   62.9553   23.0415 C.2     235      M_A    0.0000
   4434 O          28.7245   63.1463   23.4656 O.2     235      M_A    0.0000
   4435 O          30.8595   63.0004   23.7698 O.3     235      M_A    0.0000
   4436 C          30.6239   63.2138   25.0845 C.3     235      M_A    0.0000
   4437 H          30.4186   60.7259   22.0125 H       235      M_A    0.0000
   4438 H          30.9620   61.2293   20.5353 H       235      M_A    0.0000
   4439 H          30.7713   63.5119   21.4099 H       235      M_A    0.0000
   4440 H          31.5317   63.1962   25.5777 H       235      M_A    0.0000
   4441 H          30.0259   62.4644   25.4723 H       235      M_A    0.0000
   4442 H          30.1913   64.1423   25.2263 H       235      M_A    0.0000
   4443 C          29.0129   62.8200   20.6806 C.3     236      M_A    0.0000
   4444 C          28.1109   63.9436   20.8354 C.3     236      M_A    0.0000
   4445 C          27.5523   63.9677   22.1673 C.2     236      M_A    0.0000
   4446 O          26.4326   64.0118   22.4559 O.2     236      M_A    0.0000
   4447 O          28.5134   64.0116   23.0411 O.3     236      M_A    0.0000
   4448 C          28.0878   64.0351   24.3248 C.3     236      M_A    0.0000
   4449 H          28.4744   61.9342   20.7218 H       236      M_A    0.0000
   4450 H          29.4328   62.8468   19.7322 H       236      M_A    0.0000
   4451 H          28.6818   64.8099   20.7667 H       236      M_A    0.0000
   4452 H          28.9205   64.0326   24.9365 H       236      M_A    0.0000
   4453 H          27.5241   63.1940   24.5356 H       236      M_A    0.0000
   4454 H          27.5477   64.8974   24.5091 H       236      M_A    0.0000
   4455 C          27.1136   64.0685   19.7210 C.3     237      M_A    0.0000
   4456 C          26.4014   65.3267   19.6215 C.3     237      M_A    0.0000
   4457 C          25.3256   65.3797   20.5840 C.2     237      M_A    0.0000
   4458 O          24.2109   65.6100   20.3756 O.2     237      M_A    0.0000
   4459 O          25.8027   65.2021   21.7798 O.3     237      M_A    0.0000
   4460 C          24.8660   65.2330   22.7550 C.3     237      M_A    0.0000
   4461 H          26.4330   63.2905   19.8105 H       237      M_A    0.0000
   4462 H          27.6226   63.8927   18.8342 H       237      M_A    0.0000
   4463 H          27.0595   66.0779   19.9111 H       237      M_A    0.0000
   4464 H          25.3375   65.0471   23.6554 H       237      M_A    0.0000
   4465 H          24.1557   64.4976   22.5994 H       237      M_A    0.0000
   4466 H          24.4260   66.1676   22.8018 H       237      M_A    0.0000
   4467 C          26.0209   65.6896   18.2160 C.3     238      M_A    0.0000
   4468 C          24.6080   65.8701   17.9491 C.3     238      M_A    0.0000
   4469 C          23.8811   64.6493   18.2099 C.2     238      M_A    0.0000
   4470 O          23.1646   64.0942   17.4904 O.2     238      M_A    0.0000
   4471 O          24.0844   64.2760   19.4380 O.3     238      M_A    0.0000
   4472 C          23.4433   63.1346   19.7783 C.3     238      M_A    0.0000
   4473 H          26.4040   64.9633   17.5819 H       238      M_A    0.0000
   4474 H          26.5280   66.5629   17.9780 H       238      M_A    0.0000
   4475 H          24.2468   66.5528   18.6453 H       238      M_A    0.0000
   4476 H          23.6965   62.9059   20.7536 H       238      M_A    0.0000
   4477 H          23.7444   62.3542   19.1702 H       238      M_A    0.0000
   4478 H          22.4192   63.2684   19.7278 H       238      M_A    0.0000
   4479 C          24.3266   66.5111   16.6218 C.3     239      M_A    0.0000
   4480 C          23.2224   65.9679   15.8565 C.3     239      M_A    0.0000
   4481 C          22.8050   64.6957   16.3986 C.2     239      M_A    0.0000
   4482 O          22.6924   63.6951   15.8284 O.2     239      M_A    0.0000
   4483 O          22.4847   64.8402   17.6498 O.3     239      M_A    0.0000
   4484 C          22.0805   63.6968   18.2488 C.3     239      M_A    0.0000
   4485 H          25.1948   66.4707   16.0552 H       239      M_A    0.0000
   4486 H          24.1565   67.5191   16.7992 H       239      M_A    0.0000
   4487 H          22.4089   66.6004   15.9962 H       239      M_A    0.0000
   4488 H          21.8856   63.9088   19.2411 H       239      M_A    0.0000
   4489 H          22.8268   62.9820   18.2072 H       239      M_A    0.0000
   4490 H          21.2110   63.3489   17.8105 H       239      M_A    0.0000
   4491 C          23.4551   65.9864   14.3741 C.3     240      M_A    0.0000
   4492 C          22.3541   66.4378   13.5470 C.3     240      M_A    0.0000
   4493 C          21.9545   67.7755   13.9177 C.2     240      M_A    0.0000
   4494 O          20.8907   68.1364   14.1956 O.2     240      M_A    0.0000
   4495 O          22.9739   68.5760   13.8225 O.3     240      M_A    0.0000
   4496 C          22.6981   69.8582   14.1532 C.3     240      M_A    0.0000
   4497 H          23.7405   65.0326   14.0820 H       240      M_A    0.0000
   4498 H          24.2816   66.5894   14.2020 H       240      M_A    0.0000
   4499 H          22.7128   66.5233   12.5748 H       240      M_A    0.0000
   4500 H          23.5740   70.4013   14.0806 H       240      M_A    0.0000
   4501 H          22.3567   69.9162   15.1277 H       240      M_A    0.0000
   4502 H          22.0080   70.2589   13.4955 H       240      M_A    0.0000
   4503 C          21.2363   65.4419   13.4426 C.3     241      M_A    0.0000
   4504 C          20.1250   65.7971   12.5830 C.3     241      M_A    0.0000
   4505 C          20.4028   65.4288   11.2141 C.2     241      M_A    0.0000
   4506 O          20.3489   66.1112   10.2811 O.2     241      M_A    0.0000
   4507 O          20.6599   64.1565   11.1497 O.3     241      M_A    0.0000
   4508 C          20.9362   63.7145    9.9016 C.3     241      M_A    0.0000
   4509 H          20.8868   65.2500   14.4004 H       241      M_A    0.0000
   4510 H          21.6515   64.5499   13.1136 H       241      M_A    0.0000
   4511 H          19.3168   65.2056   12.8626 H       241      M_A    0.0000
   4512 H          21.1604   62.7078    9.9627 H       241      M_A    0.0000
   4513 H          21.7573   64.2100    9.5147 H       241      M_A    0.0000
   4514 H          20.1118   63.8305    9.2882 H       241      M_A    0.0000
   4515 C          19.6404   67.2034   12.7814 C.3     242      M_A    0.0000
   4516 C          18.2434   67.3685   13.1296 C.3     242      M_A    0.0000
   4517 C          17.7670   66.2274   13.8763 C.2     242      M_A    0.0000
   4518 O          16.8408   65.5746   13.6415 O.2     242      M_A    0.0000
   4519 O          18.5004   66.0646   14.9368 O.3     242      M_A    0.0000
   4520 C          18.1315   65.0133   15.7036 C.3     242      M_A    0.0000
   4521 H          19.8487   67.7396   11.9180 H       242      M_A    0.0000
   4522 H          20.2298   67.6281   13.5221 H       242      M_A    0.0000
   4523 H          18.1823   68.1683   13.7913 H       242      M_A    0.0000
   4524 H          18.7929   64.9486   16.4948 H       242      M_A    0.0000
   4525 H          18.1817   64.1338   15.1620 H       242      M_A    0.0000
   4526 H          17.1804   65.1603   16.0821 H       242      M_A    0.0000
   4527 C          17.3824   67.7800   11.9714 C.3     243      M_A    0.0000
   4528 C          15.9642   67.9243   12.2323 C.3     243      M_A    0.0000
   4529 C          15.6179   67.3314   13.5033 C.2     243      M_A    0.0000
   4530 O          14.7964   66.5422   13.7067 O.2     243      M_A    0.0000
   4531 O          16.3278   67.8769   14.4454 O.3     243      M_A    0.0000
   4532 C          16.0752   67.3833   15.6791 C.3     243      M_A    0.0000
   4533 H          17.5265   67.0957   11.2051 H       243      M_A    0.0000
   4534 H          17.7578   68.6795   11.6160 H       243      M_A    0.0000
   4535 H          15.7729   68.9398   12.3476 H       243      M_A    0.0000
   4536 H          16.7104   67.8519   16.3458 H       243      M_A    0.0000
   4537 H          16.2620   66.3665   15.7084 H       243      M_A    0.0000
   4538 H          15.1000   67.5878   15.9557 H       243      M_A    0.0000
   4539 C          15.0983   67.5134   11.0776 C.3     244      M_A    0.0000
   4540 C          13.9979   68.3947   10.7420 C.3     244      M_A    0.0000
   4541 C          13.4497   69.0003   11.9334 C.2     244      M_A    0.0000
   4542 O          12.3433   69.0010   12.2724 O.2     244      M_A    0.0000
   4543 O          14.3874   69.6385   12.5677 O.3     244      M_A    0.0000
   4544 C          13.9696   70.2407   13.7045 C.3     244      M_A    0.0000
   4545 H          14.7339   66.5617   11.2722 H       244      M_A    0.0000
   4546 H          15.7182   67.4110   10.2520 H       244      M_A    0.0000
   4547 H          14.3917   69.1859   10.1942 H       244      M_A    0.0000
   4548 H          14.7894   70.6856   14.1491 H       244      M_A    0.0000
   4549 H          13.5786   69.5443   14.3615 H       244      M_A    0.0000
   4550 H          13.2748   70.9753   13.4881 H       244      M_A    0.0000
   4551 C          12.9914   67.7712    9.8201 C.3     245      M_A    0.0000
   4552 C          12.8426   68.3767    8.5119 C.3     245      M_A    0.0000
   4553 C          12.3613   69.7335    8.6312 C.2     245      M_A    0.0000
   4554 O          11.4402   70.1979    8.1068 O.2     245      M_A    0.0000
   4555 O          13.1745   70.4193    9.3777 O.3     245      M_A    0.0000
   4556 C          12.8053   71.7089    9.5512 C.3     245      M_A    0.0000
   4557 H          12.0741   67.7623   10.3048 H       245      M_A    0.0000
   4558 H          13.2565   66.7745    9.7072 H       245      M_A    0.0000
   4559 H          13.7940   68.4634    8.1015 H       245      M_A    0.0000
   4560 H          13.4907   72.1542   10.1833 H       245      M_A    0.0000
   4561 H          11.8709   71.7628    9.9912 H       245      M_A    0.0000
   4562 H          12.8176   72.2114    8.6475 H       245      M_A    0.0000
   4563 C          12.0954   67.5163    7.5355 C.3     246      M_A    0.0000
   4564 C          10.9636   68.1237    6.8645 C.3     246      M_A    0.0000
   4565 C           9.8306   68.2113    7.7563 C.2     246      M_A    0.0000
   4566 O           8.7582   67.8206    7.5658 O.2     246      M_A    0.0000
   4567 O          10.1640   68.8823    8.8183 O.3     246      M_A    0.0000
   4568 C           9.1641   69.0169    9.7192 C.3     246      M_A    0.0000
   4569 H          11.7855   66.6605    8.0333 H       246      M_A    0.0000
   4570 H          12.7803   67.1935    6.8262 H       246      M_A    0.0000
   4571 H          11.2201   69.1098    6.6569 H       246      M_A    0.0000
   4572 H           9.5375   69.5289   10.5353 H       246      M_A    0.0000
   4573 H           8.8349   68.0895   10.0371 H       246      M_A    0.0000
   4574 H           8.3869   69.5661    9.3147 H       246      M_A    0.0000
   4575 C          10.6739   67.5257    5.5190 C.3     247      M_A    0.0000
   4576 C           9.2788   67.4079    5.1446 C.3     247      M_A    0.0000
   4577 C           8.6265   68.6955    5.2012 C.2     247      M_A    0.0000
   4578 O           7.6583   68.9649    5.7749 O.2     247      M_A    0.0000
   4579 O           9.2517   69.5340    4.4299 O.3     247      M_A    0.0000
   4580 C           8.7138   70.7750    4.4175 C.3     247      M_A    0.0000
   4581 H          11.1241   66.5919    5.4789 H       247      M_A    0.0000
   4582 H          11.1692   68.1042    4.8144 H       247      M_A    0.0000
   4583 H           9.2500   67.1350    4.1417 H       247      M_A    0.0000
   4584 H           9.2994   71.3699    3.8087 H       247      M_A    0.0000
   4585 H           8.7138   71.1800    5.3691 H       247      M_A    0.0000
   4586 H           7.7565   70.7482    4.0274 H       247      M_A    0.0000
   4587 C           8.5613   66.2956    5.8516 C.3     248      M_A    0.0000
   4588 C           7.9231   65.2974    5.0170 C.3     248      M_A    0.0000
   4589 C           7.5030   65.8766    3.7622 C.2     248      M_A    0.0000
   4590 O           6.4459   65.8385    3.2929 O.2     248      M_A    0.0000
   4591 O           8.5275   66.4062    3.1630 O.3     248      M_A    0.0000
   4592 C           8.2325   66.9790    1.9737 C.3     248      M_A    0.0000
   4593 H           7.8577   66.7192    6.4856 H       248      M_A    0.0000
   4594 H           9.2518   65.8319    6.4717 H       248      M_A    0.0000
   4595 H           8.6492   64.5983    4.7615 H       248      M_A    0.0000
   4596 H           9.0989   67.3990    1.5989 H       248      M_A    0.0000
   4597 H           7.5314   67.7294    2.0964 H       248      M_A    0.0000
   4598 H           7.8971   66.2659    1.3042 H       248      M_A    0.0000
   4599 C           6.8758   64.4976    5.7349 C.3     249      M_A    0.0000
   4600 C           5.8738   63.8490    4.9132 C.3     249      M_A    0.0000
   4601 C           6.4967   63.1116    3.8385 C.2     249      M_A    0.0000
   4602 O           6.2678   63.1959    2.7073 O.2     249      M_A    0.0000
   4603 O           7.3326   62.2473    4.3316 O.3     249      M_A    0.0000
   4604 C           7.9708   61.5059    3.3975 C.3     249      M_A    0.0000
   4605 H           6.4111   65.1206    6.4222 H       249      M_A    0.0000
   4606 H           7.3714   63.7814    6.2988 H       249      M_A    0.0000
   4607 H           5.4108   63.1278    5.5020 H       249      M_A    0.0000
   4608 H           8.6333   60.8808    3.8852 H       249      M_A    0.0000
   4609 H           8.5067   62.1142    2.7555 H       249      M_A    0.0000
   4610 H           7.2937   60.9238    2.8760 H       249      M_A    0.0000
   4611 C           4.7567   64.7616    4.4994 C.3     250      M_A    0.0000
   4612 C           4.0443   64.4119    3.2868 C.3     250      M_A    0.0000
   4613 C           4.2091   63.0085    2.9869 C.2     250      M_A    0.0000
   4614 O           4.5781   62.5438    1.9935 O.2     250      M_A    0.0000
   4615 O           3.8000   62.2975    3.9950 O.3     250      M_A    0.0000
   4616 C           3.9169   60.9628    3.8091 C.3     250      M_A    0.0000
   4617 H           5.1417   65.7210    4.4114 H       250      M_A    0.0000
   4618 H           4.0862   64.8020    5.2902 H       250      M_A    0.0000
   4619 H           3.0294   64.5289    3.4800 H       250      M_A    0.0000
   4620 H           3.6022   60.4921    4.6734 H       250      M_A    0.0000
   4621 H           4.9036   60.7055    3.6368 H       250      M_A    0.0000
   4622 H           3.3129   60.6540    3.0287 H       250      M_A    0.0000
   4623 C           4.3135   65.3462    2.1438 C.3     251      M_A    0.0000
   4624 C           5.0278   64.7982    1.0082 C.3     251      M_A    0.0000
   4625 C           4.7465   63.3889    0.8623 C.2     251      M_A    0.0000
   4626 O           5.5140   62.5259    0.7891 O.2     251      M_A    0.0000
   4627 O           3.4647   63.2114    0.7424 O.3     251      M_A    0.0000
   4628 C           3.1002   61.9165    0.6018 C.3     251      M_A    0.0000
   4629 H           4.8284   66.1671    2.5145 H       251      M_A    0.0000
   4630 H           3.3964   65.7128    1.8262 H       251      M_A    0.0000
   4631 H           4.6356   65.2413    0.1532 H       251      M_A    0.0000
   4632 H           2.0689   61.8796    0.5515 H       251      M_A    0.0000
   4633 H           3.4082   61.3622    1.4188 H       251      M_A    0.0000
   4634 H           3.4858   61.5273   -0.2752 H       251      M_A    0.0000
   4635 C           6.4824   65.1663    0.9816 C.3     252      M_A    0.0000
   4636 C           6.9394   65.9355   -0.1584 C.2     252      M_A    0.0000
   4637 C           6.1730   67.1527   -0.2911 C.2     252      M_A    0.0000
   4638 O           5.6124   67.5277   -1.2314 O.2     252      M_A    0.0000
   4639 O           6.2587   67.8424    0.8071 O.3     252      M_A    0.0000
   4640 C           5.5683   69.0052    0.7807 C.3     252      M_A    0.0000
   4641 H           7.0363   64.2921    1.0551 H       252      M_A    0.0000
   4642 H           6.6798   65.6952    1.8521 H       252      M_A    0.0000
   4643 H           7.9090   66.2487    0.0488 H       252      M_A    0.0000
   4644 H           5.6698   69.4569    1.7044 H       252      M_A    0.0000
   4645 H           4.5636   68.8268    0.6120 H       252      M_A    0.0000
   4646 H           5.9570   69.6381    0.0613 H       252      M_A    0.0000
   4647 C           4.0522   70.3706   -1.3064 C.2     253      M_A    0.0000
   4648 C           5.3196   69.7611   -0.8389 C.3     253      M_A    0.0000
   4649 C           5.0810   68.9053    0.3412 C.2     253      M_A    0.0000
   4650 O           5.6320   68.9586    1.3870 O.2     253      M_A    0.0000
   4651 O           4.1812   67.9745    0.0408 O.3     253      M_A    0.0000
   4652 C           3.8865   67.1198    1.0876 C.3     253      M_A    0.0000
   4653 H           3.7001   71.0589   -0.5798 H       253      M_A    0.0000
   4654 H           4.2417   70.9472   -2.1766 H       253      M_A    0.0000
   4655 H           5.6497   69.0958   -1.5998 H       253      M_A    0.0000
   4656 H           3.1404   66.4476    0.7590 H       253      M_A    0.0000
   4657 H           3.5089   67.6613    1.9138 H       253      M_A    0.0000
   4658 H           4.7432   66.5632    1.3604 H       253      M_A    0.0000
   4659 C           6.4671   70.7697   -0.6944 C.3     254      M_A    0.0000
   4660 C           6.6640   71.7204   -1.8140 C.3     254      M_A    0.0000
   4661 C           6.4497   71.0475   -3.1115 C.2     254      M_A    0.0000
   4662 O           7.1892   71.0214   -4.0349 O.2     254      M_A    0.0000
   4663 O           5.2323   70.5151   -3.1405 O.3     254      M_A    0.0000
   4664 C           4.9351   69.8570   -4.3202 C.3     254      M_A    0.0000
   4665 H           7.3630   70.2262   -0.5283 H       254      M_A    0.0000
   4666 H           6.2941   71.3138    0.1999 H       254      M_A    0.0000
   4667 H           5.8917   72.4483   -1.7501 H       254      M_A    0.0000
   4668 H           3.9679   69.4421   -4.2269 H       254      M_A    0.0000
   4669 H           5.6219   69.0708   -4.4896 H       254      M_A    0.0000
   4670 H           4.9320   70.5370   -5.1300 H       254      M_A    0.0000
   4671 C           7.9607   72.5340   -1.7053 C.3     255      M_A    0.0000
   4672 C           8.7178   72.7523   -2.9604 C.3     255      M_A    0.0000
   4673 C           8.9713   71.4681   -3.6450 C.2     255      M_A    0.0000
   4674 O          10.0147   71.0451   -4.0092 O.2     255      M_A    0.0000
   4675 O           7.8165   70.8540   -3.8801 O.3     255      M_A    0.0000
   4676 C           7.9488   69.6348   -4.5197 C.3     255      M_A    0.0000
   4677 H           8.5863   72.0608   -0.9911 H       255      M_A    0.0000
   4678 H           7.7058   73.4732   -1.2830 H       255      M_A    0.0000
   4679 H           8.0859   73.2963   -3.6201 H       255      M_A    0.0000
   4680 H           6.9845   69.2159   -4.6251 H       255      M_A    0.0000
   4681 H           8.5393   68.9747   -3.9418 H       255      M_A    0.0000
   4682 H           8.3639   69.7678   -5.4831 H       255      M_A    0.0000
   4683 C           9.9471   73.6539   -2.7847 C.3     256      M_A    0.0000
   4684 C          11.2633   73.0583   -3.1152 C.3     256      M_A    0.0000
   4685 C          11.2413   72.4666   -4.4685 C.2     256      M_A    0.0000
   4686 O          11.5433   71.3634   -4.7721 O.2     256      M_A    0.0000
   4687 O          10.8971   73.3954   -5.3545 O.3     256      M_A    0.0000
   4688 C          10.8458   72.9363   -6.6582 C.3     256      M_A    0.0000
   4689 H           9.9572   74.0038   -1.7832 H       256      M_A    0.0000
   4690 H           9.7920   74.5144   -3.3856 H       256      M_A    0.0000
   4691 H          11.9648   73.8552   -3.1741 H       256      M_A    0.0000
   4692 H          10.5293   73.7355   -7.2727 H       256      M_A    0.0000
   4693 H          10.1460   72.1483   -6.7469 H       256      M_A    0.0000
   4694 H          11.8053   72.6271   -6.9774 H       256      M_A    0.0000
   4695 C          11.8174   72.1473   -2.0117 C.3     257      M_A    0.0000
   4696 C          12.7325   72.7725   -1.0280 C.3     257      M_A    0.0000
   4697 C          14.1198   72.3127   -1.2427 C.2     257      M_A    0.0000
   4698 O          14.8472   71.8341   -0.4413 O.2     257      M_A    0.0000
   4699 O          14.4916   72.5877   -2.4886 O.3     257      M_A    0.0000
   4700 C          15.7820   72.1915   -2.7900 C.3     257      M_A    0.0000
   4701 H          12.3030   71.3265   -2.4765 H       257      M_A    0.0000
   4702 H          10.9847   71.7335   -1.5007 H       257      M_A    0.0000
   4703 H          12.7528   73.8155   -1.2338 H       257      M_A    0.0000
   4704 H          15.9641   72.4199   -3.8054 H       257      M_A    0.0000
   4705 H          15.8904   71.1479   -2.6570 H       257      M_A    0.0000
   4706 H          16.4779   72.7222   -2.1966 H       257      M_A    0.0000
   4707 C          12.2299   72.6822    0.4191 C.3     258      M_A    0.0000
   4708 C          12.5876   73.8030    1.3202 C.3     258      M_A    0.0000
   4709 C          13.9024   74.3669    0.9524 C.2     258      M_A    0.0000
   4710 O          14.8354   74.5290    1.6620 O.2     258      M_A    0.0000
   4711 O          13.8787   74.7587   -0.3173 O.3     258      M_A    0.0000
   4712 C          15.0713   75.3019   -0.7598 C.3     258      M_A    0.0000
   4713 H          12.5796   71.7695    0.8318 H       258      M_A    0.0000
   4714 H          11.1738   72.5901    0.3780 H       258      M_A    0.0000
   4715 H          11.8917   74.5868    1.1412 H       258      M_A    0.0000
   4716 H          14.9593   75.5444   -1.7820 H       258      M_A    0.0000
   4717 H          15.8563   74.5994   -0.6663 H       258      M_A    0.0000
   4718 H          15.2921   76.1881   -0.2268 H       258      M_A    0.0000
   4719 C          12.4107   73.4725    2.8083 C.3     259      M_A    0.0000
   4720 C          13.5161   73.8642    3.7142 C.3     259      M_A    0.0000
   4721 C          14.2081   75.0644    3.2017 C.2     259      M_A    0.0000
   4722 O          15.3680   75.1927    3.0055 O.2     259      M_A    0.0000
   4723 O          13.3328   76.0536    3.0546 O.3     259      M_A    0.0000
   4724 C          13.8865   77.2267    2.5746 C.3     259      M_A    0.0000
   4725 H          12.2337   72.4300    2.8943 H       259      M_A    0.0000
   4726 H          11.5140   73.9410    3.1280 H       259      M_A    0.0000
   4727 H          13.0780   74.1701    4.6335 H       259      M_A    0.0000
   4728 H          13.1075   77.9312    2.4595 H       259      M_A    0.0000
   4729 H          14.3350   77.0662    1.6304 H       259      M_A    0.0000
   4730 H          14.5881   77.6120    3.2655 H       259      M_A    0.0000
   4731 C          14.4327   72.6962    4.1021 C.3     260      M_A    0.0000
   4732 C          15.7498   73.0471    4.6836 C.3     260      M_A    0.0000
   4733 C          16.4037   74.1068    3.8889 C.2     260      M_A    0.0000
   4734 O          17.4916   74.0844    3.4240 O.2     260      M_A    0.0000
   4735 O          15.6077   75.1690    3.8239 O.3     260      M_A    0.0000
   4736 C          16.1329   76.2206    3.0948 C.3     260      M_A    0.0000
   4737 H          14.5742   72.0904    3.2426 H       260      M_A    0.0000
   4738 H          13.8961   72.0931    4.7905 H       260      M_A    0.0000
   4739 H          15.5682   73.4877    5.6342 H       260      M_A    0.0000
   4740 H          15.4130   76.9936    3.0734 H       260      M_A    0.0000
   4741 H          16.3313   75.9201    2.1004 H       260      M_A    0.0000
   4742 H          17.0080   76.5897    3.5597 H       260      M_A    0.0000
   4743 C          16.6268   71.8266    4.9938 C.3     261      M_A    0.0000
   4744 C          16.7557   71.4433    6.4194 C.3     261      M_A    0.0000
   4745 C          17.7811   72.2689    7.0894 C.2     261      M_A    0.0000
   4746 O          18.7119   71.8875    7.7126 O.2     261      M_A    0.0000
   4747 O          17.4692   73.5546    6.9628 O.3     261      M_A    0.0000
   4748 C          18.3750   74.4135    7.5585 C.3     261      M_A    0.0000
   4749 H          17.5899   72.0019    4.5848 H       261      M_A    0.0000
   4750 H          16.2294   71.0091    4.4465 H       261      M_A    0.0000
   4751 H          15.8411   71.6970    6.8988 H       261      M_A    0.0000
   4752 H          18.0576   75.4035    7.3698 H       261      M_A    0.0000
   4753 H          19.3380   74.2852    7.1406 H       261      M_A    0.0000
   4754 H          18.3937   74.2607    8.6046 H       261      M_A    0.0000
   4755 C          16.8897   69.9301    6.6368 C.3     262      M_A    0.0000
   4756 C          18.1755   69.4479    7.1938 C.3     262      M_A    0.0000
   4757 C          18.7815   70.4739    8.0669 C.2     262      M_A    0.0000
   4758 O          19.8763   70.9174    7.9965 O.2     262      M_A    0.0000
   4759 O          17.9283   70.7953    9.0338 O.3     262      M_A    0.0000
   4760 C          18.4052   71.7558    9.9073 C.3     262      M_A    0.0000
   4761 H          16.7005   69.4474    5.7111 H       262      M_A    0.0000
   4762 H          16.0981   69.6353    7.2787 H       262      M_A    0.0000
   4763 H          17.9542   68.6324    7.8393 H       262      M_A    0.0000
   4764 H          17.6435   71.9649   10.6090 H       262      M_A    0.0000
   4765 H          18.6361   72.6477    9.3880 H       262      M_A    0.0000
   4766 H          19.2507   71.3922   10.4280 H       262      M_A    0.0000
   4767 C          19.1145   68.8502    6.1374 C.3     263      M_A    0.0000
   4768 C          20.3591   68.2171    6.6336 C.3     263      M_A    0.0000
   4769 C          20.5985   68.5771    8.0461 C.2     263      M_A    0.0000
   4770 O          21.5812   69.0471    8.5082 O.2     263      M_A    0.0000
   4771 O          19.5502   68.2185    8.7801 O.3     263      M_A    0.0000
   4772 C          19.6776   68.5170   10.1247 C.3     263      M_A    0.0000
   4773 H          19.3576   69.6153    5.4437 H       263      M_A    0.0000
   4774 H          18.5536   68.1360    5.5890 H       263      M_A    0.0000
   4775 H          20.1980   67.1661    6.6405 H       263      M_A    0.0000
   4776 H          18.7839   68.2281   10.6085 H       263      M_A    0.0000
   4777 H          19.8121   69.5568   10.2628 H       263      M_A    0.0000
   4778 H          20.4794   67.9728   10.5479 H       263      M_A    0.0000
   4779 C          21.5593   68.4097    5.6970 C.3     264      M_A    0.0000
   4780 C          22.7808   67.6310    6.0099 C.3     264      M_A    0.0000
   4781 C          22.4592   66.1971    6.1602 C.2     264      M_A    0.0000
   4782 O          22.7234   65.4967    7.0767 O.2     264      M_A    0.0000
   4783 O          21.8764   65.7535    5.0513 O.3     264      M_A    0.0000
   4784 C          21.5329   64.4143    5.0944 C.3     264      M_A    0.0000
   4785 H          21.7943   69.4440    5.6727 H       264      M_A    0.0000
   4786 H          21.2327   68.1686    4.7168 H       264      M_A    0.0000
   4787 H          23.4156   67.6834    5.1585 H       264      M_A    0.0000
   4788 H          21.0472   64.1733    4.1876 H       264      M_A    0.0000
   4789 H          20.8641   64.2284    5.8923 H       264      M_A    0.0000
   4790 H          22.3997   63.8148    5.1805 H       264      M_A    0.0000
   4791 C          23.6185   68.2360    7.1444 C.3     265      M_A    0.0000
   4792 C          25.0156   67.7577    7.2695 C.3     265      M_A    0.0000
   4793 C          25.2235   66.5411    6.4580 C.2     265      M_A    0.0000
   4794 O          25.6625   65.5043    6.8222 O.2     265      M_A    0.0000
   4795 O          24.9127   66.7934    5.1907 O.3     265      M_A    0.0000
   4796 C          25.0730   65.7094    4.3466 C.3     265      M_A    0.0000
   4797 H          23.1035   68.0705    8.0571 H       265      M_A    0.0000
   4798 H          23.6203   69.2877    7.0049 H       265      M_A    0.0000
   4799 H          25.6425   68.4942    6.8278 H       265      M_A    0.0000
   4800 H          24.7665   66.0022    3.3788 H       265      M_A    0.0000
   4801 H          24.4661   64.9021    4.6602 H       265      M_A    0.0000
   4802 H          26.0901   65.4233    4.3043 H       265      M_A    0.0000
   4803 C          25.5037   67.6669    8.7215 C.3     266      M_A    0.0000
   4804 C          26.9676   67.7442    8.9387 C.3     266      M_A    0.0000
   4805 C          27.2965   67.5001   10.3580 C.2     266      M_A    0.0000
   4806 O          27.9432   68.1881   11.0712 O.2     266      M_A    0.0000
   4807 O          26.8166   66.3176   10.7287 O.3     266      M_A    0.0000
   4808 C          27.0725   65.9966   12.0495 C.3     266      M_A    0.0000
   4809 H          25.1302   66.7653    9.1377 H       266      M_A    0.0000
   4810 H          25.0287   68.4477    9.2603 H       266      M_A    0.0000
   4811 H          27.4087   66.9338    8.4102 H       266      M_A    0.0000
   4812 H          26.6210   65.0629   12.2511 H       266      M_A    0.0000
   4813 H          26.6499   66.7194   12.6956 H       266      M_A    0.0000
   4814 H          28.1137   65.9078   12.2114 H       266      M_A    0.0000
   4815 C          27.6127   68.9931    8.3231 C.3     267      M_A    0.0000
   4816 C          29.0766   68.9450    8.0979 C.3     267      M_A    0.0000
   4817 C          29.4154   67.9125    7.0973 C.2     267      M_A    0.0000
   4818 O          30.1934   67.0288    7.2162 O.2     267      M_A    0.0000
   4819 O          28.7621   68.1579    5.9663 O.3     267      M_A    0.0000
   4820 C          29.0125   67.2399    4.9625 C.3     267      M_A    0.0000
   4821 H          27.3754   69.8231    8.9398 H       267      M_A    0.0000
   4822 H          27.1228   69.1750    7.3998 H       267      M_A    0.0000
   4823 H          29.3577   69.8669    7.6487 H       267      M_A    0.0000
   4824 H          28.4217   67.5019    4.1267 H       267      M_A    0.0000
   4825 H          28.7398   66.2665    5.2734 H       267      M_A    0.0000
   4826 H          30.0304   67.2743    4.6780 H       267      M_A    0.0000
   4827 C          29.8941   68.8918    9.3955 C.3     268      M_A    0.0000
   4828 C          31.3677   68.8254    9.2528 C.3     268      M_A    0.0000
   4829 C          31.7389   68.0901    8.0265 C.2     268      M_A    0.0000
   4830 O          32.4725   67.1656    7.9409 O.2     268      M_A    0.0000
   4831 O          31.1788   68.6730    6.9717 O.3     268      M_A    0.0000
   4832 C          31.4665   68.0535    5.7690 C.3     268      M_A    0.0000
   4833 H          29.5548   68.0625    9.9636 H       268      M_A    0.0000
   4834 H          29.6362   69.7504    9.9628 H       268      M_A    0.0000
   4835 H          31.7149   69.8179    9.0948 H       268      M_A    0.0000
   4836 H          30.9479   68.5678    5.0055 H       268      M_A    0.0000
   4837 H          31.1357   67.0491    5.7805 H       268      M_A    0.0000
   4838 H          32.5028   68.1076    5.5660 H       268      M_A    0.0000
   4839 C          32.0866   68.3719   10.5304 C.3     269      M_A    0.0000
   4840 C          33.5595   68.5326   10.5593 C.3     269      M_A    0.0000
   4841 C          34.2174   67.4303    9.8284 C.2     269      M_A    0.0000
   4842 O          35.0715   66.7157   10.2286 O.2     269      M_A    0.0000
   4843 O          33.7619   67.3899    8.5806 O.3     269      M_A    0.0000
   4844 C          34.3190   66.3841    7.8117 C.3     269      M_A    0.0000
   4845 H          31.8369   67.3556   10.7046 H       269      M_A    0.0000
   4846 H          31.6601   68.9125   11.3376 H       269      M_A    0.0000
   4847 H          33.7927   69.4091   10.0044 H       269      M_A    0.0000
   4848 H          33.8663   66.4150    6.8575 H       269      M_A    0.0000
   4849 H          34.1270   65.4378    8.2429 H       269      M_A    0.0000
   4850 H          35.3580   66.5425    7.6955 H       269      M_A    0.0000
   4851 C          34.1173   68.8127   11.9612 C.3     270      M_A    0.0000
   4852 C          35.5741   69.0660   12.0606 C.3     270      M_A    0.0000
   4853 C          35.9391   70.2965   11.3294 C.2     270      M_A    0.0000
   4854 O          36.7687   70.4127   10.4935 O.2     270      M_A    0.0000
   4855 O          35.2388   71.3209   11.8051 O.3     270      M_A    0.0000
   4856 C          35.5092   72.5247   11.1800 C.3     270      M_A    0.0000
   4857 H          33.8551   67.9977   12.5878 H       270      M_A    0.0000
   4858 H          33.5900   69.6491   12.3460 H       270      M_A    0.0000
   4859 H          35.7892   69.2772   13.0803 H       270      M_A    0.0000
   4860 H          34.8792   73.2600   11.6029 H       270      M_A    0.0000
   4861 H          35.3010   72.4604   10.1451 H       270      M_A    0.0000
   4862 H          36.5143   72.8079   11.3463 H       270      M_A    0.0000
   4863 C          36.4327   67.8353   11.7399 C.3     271      M_A    0.0000
   4864 C          37.6901   67.6810   12.5088 C.3     271      M_A    0.0000
   4865 C          38.1883   68.9962   12.9606 C.2     271      M_A    0.0000
   4866 O          39.2674   69.4503   12.7887 O.2     271      M_A    0.0000
   4867 O          37.2524   69.6014   13.6846 O.3     271      M_A    0.0000
   4868 C          37.6245   70.8479   14.1544 C.3     271      M_A    0.0000
   4869 H          36.6508   67.8486   10.7017 H       271      M_A    0.0000
   4870 H          35.8229   66.9805   11.8920 H       271      M_A    0.0000
   4871 H          37.4521   67.1548   13.4016 H       271      M_A    0.0000
   4872 H          36.8042   71.2556   14.6810 H       271      M_A    0.0000
   4873 H          37.8596   71.4927   13.3498 H       271      M_A    0.0000
   4874 H          38.4413   70.7614   14.8203 H       271      M_A    0.0000
   4875 C          38.7289   66.7923   11.8115 C.3     272      M_A    0.0000
   4876 C          39.3484   65.7233   12.6297 C.3     272      M_A    0.0000
   4877 C          38.3144   64.8192   13.1734 C.2     272      M_A    0.0000
   4878 O          38.1550   64.5129   14.3052 O.2     272      M_A    0.0000
   4879 O          37.6006   64.3089   12.1753 O.3     272      M_A    0.0000
   4880 C          36.5997   63.4463   12.5844 C.3     272      M_A    0.0000
   4881 H          39.4866   67.4211   11.4163 H       272      M_A    0.0000
   4882 H          38.2526   66.3565   10.9696 H       272      M_A    0.0000
   4883 H          39.9265   65.1182   11.9738 H       272      M_A    0.0000
   4884 H          36.0726   63.1284   11.7256 H       272      M_A    0.0000
   4885 H          35.9228   63.9421   13.2282 H       272      M_A    0.0000
   4886 H          37.0163   62.5966   13.0561 H       272      M_A    0.0000
   4887 C          40.3636   66.2473   13.6543 C.3     273      M_A    0.0000
   4888 C          40.4770   65.4941   14.9255 C.3     273      M_A    0.0000
   4889 C          39.1402   65.2379   15.4995 C.2     273      M_A    0.0000
   4890 O          38.7698   65.4954   16.5934 O.2     273      M_A    0.0000
   4891 O          38.3953   64.5818   14.6159 O.3     273      M_A    0.0000
   4892 C          37.1174   64.2954   15.0612 C.3     273      M_A    0.0000
   4893 H          40.1274   67.2606   13.8620 H       273      M_A    0.0000
   4894 H          41.3096   66.2678   13.1745 H       273      M_A    0.0000
   4895 H          40.8646   64.5325   14.6895 H       273      M_A    0.0000
   4896 H          36.6005   63.8104   14.2777 H       273      M_A    0.0000
   4897 H          36.6004   65.1859   15.3027 H       273      M_A    0.0000
   4898 H          37.1551   63.6432   15.8927 H       273      M_A    0.0000
   4899 C          41.5042   66.0875   15.8990 C.3     274      M_A    0.0000
   4900 C          40.9729   66.9268   16.9988 C.3     274      M_A    0.0000
   4901 C          40.3470   68.1524   16.4619 C.2     274      M_A    0.0000
   4902 O          40.5810   69.2702   16.7718 O.2     274      M_A    0.0000
   4903 O          39.3888   67.8223   15.6021 O.3     274      M_A    0.0000
   4904 C          38.7406   68.9072   15.0400 C.3     274      M_A    0.0000
   4905 H          42.2075   66.6459   15.3342 H       274      M_A    0.0000
   4906 H          42.0496   65.2759   16.3109 H       274      M_A    0.0000
   4907 H          40.1772   66.3868   17.4523 H       274      M_A    0.0000
   4908 H          38.0297   68.5400   14.3499 H       274      M_A    0.0000
   4909 H          39.4269   69.5205   14.5193 H       274      M_A    0.0000
   4910 H          38.2315   69.4582   15.7852 H       274      M_A    0.0000
   4911 C          41.9764   67.1499   18.1381 C.3     275      M_A    0.0000
   4912 C          43.0694   68.1179   17.8838 C.3     275      M_A    0.0000
   4913 C          42.5211   69.4635   17.6179 C.2     275      M_A    0.0000
   4914 O          42.7467   70.1568   16.6859 O.2     275      M_A    0.0000
   4915 O          41.7673   69.8470   18.6430 O.3     275      M_A    0.0000
   4916 C          41.2036   71.1005   18.4876 C.3     275      M_A    0.0000
   4917 H          42.3897   66.2088   18.4007 H       275      M_A    0.0000
   4918 H          41.4216   67.4640   18.9861 H       275      M_A    0.0000
   4919 H          43.6195   68.2181   18.7882 H       275      M_A    0.0000
   4920 H          40.5992   71.2928   19.3326 H       275      M_A    0.0000
   4921 H          40.5921   71.1280   17.6252 H       275      M_A    0.0000
   4922 H          41.9581   71.8398   18.4394 H       275      M_A    0.0000
   4923 C          44.1035   67.6198   16.8652 C.3     276      M_A    0.0000
   4924 C          45.4286   67.2258   17.3988 C.3     276      M_A    0.0000
   4925 C          46.5121   67.8683   16.6274 C.2     276      M_A    0.0000
   4926 O          47.4341   67.3372   16.1096 O.2     276      M_A    0.0000
   4927 O          46.3551   69.1878   16.6545 O.3     276      M_A    0.0000
   4928 C          47.3243   69.8831   15.9544 C.3     276      M_A    0.0000
   4929 H          44.2272   68.3726   16.1280 H       276      M_A    0.0000
   4930 H          43.6708   66.7938   16.3590 H       276      M_A    0.0000
   4931 H          45.5087   67.6326   18.3780 H       276      M_A    0.0000
   4932 H          47.0889   70.9118   16.0068 H       276      M_A    0.0000
   4933 H          47.3284   69.5919   14.9377 H       276      M_A    0.0000
   4934 H          48.2743   69.7334   16.3940 H       276      M_A    0.0000
   4935 C          45.5805   65.7126   17.6044 C.3     277      M_A    0.0000
   4936 C          46.7816   65.2575   18.3435 C.3     277      M_A    0.0000
   4937 C          47.0185   66.1100   19.5263 C.2     277      M_A    0.0000
   4938 O          48.0180   66.6752   19.8124 O.2     277      M_A    0.0000
   4939 O          45.9415   66.0996   20.3049 O.3     277      M_A    0.0000
   4940 C          46.0645   66.8746   21.4439 C.3     277      M_A    0.0000
   4941 H          45.5527   65.2474   16.6513 H       277      M_A    0.0000
   4942 H          44.7105   65.3771   18.1106 H       277      M_A    0.0000
   4943 H          46.5641   64.2940   18.7372 H       277      M_A    0.0000
   4944 H          45.1493   66.8281   21.9698 H       277      M_A    0.0000
   4945 H          46.2526   67.8833   21.1878 H       277      M_A    0.0000
   4946 H          46.8294   66.4941   22.0670 H       277      M_A    0.0000
   4947 C          48.0045   65.0315   17.4443 C.3     278      M_A    0.0000
   4948 C          49.0771   64.1628   17.9838 C.3     278      M_A    0.0000
   4949 C          48.5212   62.8728   18.4407 C.2     278      M_A    0.0000
   4950 O          48.6570   62.3714   19.5039 O.2     278      M_A    0.0000
   4951 O          47.8835   62.2823   17.4352 O.3     278      M_A    0.0000
   4952 C          47.3227   61.0618   17.7654 C.3     278      M_A    0.0000
   4953 H          48.4081   65.9803   17.1944 H       278      M_A    0.0000
   4954 H          47.6500   64.6233   16.5315 H       278      M_A    0.0000
   4955 H          49.7199   63.9146   17.1740 H       278      M_A    0.0000
   4956 H          46.8124   60.6972   16.9151 H       278      M_A    0.0000
   4957 H          46.6248   61.1748   18.5519 H       278      M_A    0.0000
   4958 H          48.0774   60.3688   18.0266 H       278      M_A    0.0000
   4959 C          49.9926   64.8736   18.9895 C.3     279      M_A    0.0000
   4960 C          51.4240   64.4901   18.9747 C.3     279      M_A    0.0000
   4961 C          51.9681   64.4579   20.3476 C.2     279      M_A    0.0000
   4962 O          52.9293   65.0189   20.7498 O.2     279      M_A    0.0000
   4963 O          51.2527   63.6193   21.0900 O.3     279      M_A    0.0000
   4964 C          51.6846   63.5207   22.4003 C.3     279      M_A    0.0000
   4965 H          49.5943   64.7211   19.9609 H       279      M_A    0.0000
   4966 H          49.9080   65.9153   18.8072 H       279      M_A    0.0000
   4967 H          51.4782   63.4846   18.6331 H       279      M_A    0.0000
   4968 H          51.0323   62.8639   22.9097 H       279      M_A    0.0000
   4969 H          51.6474   64.4648   22.8753 H       279      M_A    0.0000
   4970 H          52.6617   63.1180   22.4362 H       279      M_A    0.0000
   4971 C          52.2590   65.2804   17.9584 C.3     280      M_A    0.0000
   4972 C          53.5546   64.6856   17.5538 C.3     280      M_A    0.0000
   4973 C          54.2016   64.0181   18.7017 C.2     280      M_A    0.0000
   4974 O          55.2998   64.1939   19.1059 O.2     280      M_A    0.0000
   4975 O          53.3833   63.0966   19.1993 O.3     280      M_A    0.0000
   4976 C          53.9004   62.4138   20.2853 C.3     280      M_A    0.0000
   4977 H          52.4220   66.2521   18.3521 H       280      M_A    0.0000
   4978 H          51.6543   65.4195   17.0978 H       280      M_A    0.0000
   4979 H          53.3422   63.9044   16.8645 H       280      M_A    0.0000
   4980 H          53.1638   61.7369   20.6252 H       280      M_A    0.0000
   4981 H          54.1275   63.0841   21.0712 H       280      M_A    0.0000
   4982 H          54.7565   61.8626   19.9997 H       280      M_A    0.0000
   4983 C          54.4521   65.6504   16.7672 C.3     281      M_A    0.0000
   4984 C          55.9064   65.5838   17.0443 C.3     281      M_A    0.0000
   4985 C          56.1666   64.8074   18.2736 C.2     281      M_A    0.0000
   4986 O          56.7969   65.1483   19.2154 O.2     281      M_A    0.0000
   4987 O          55.6438   63.5917   18.1508 O.3     281      M_A    0.0000
   4988 C          55.8338   62.7843   19.2576 C.3     281      M_A    0.0000
   4989 H          54.1028   66.6375   16.9388 H       281      M_A    0.0000
   4990 H          54.2837   65.4638   15.7365 H       281      M_A    0.0000
   4991 H          56.3516   65.0183   16.2616 H       281      M_A    0.0000
   4992 H          55.3525   61.8617   19.0742 H       281      M_A    0.0000
   4993 H          55.3999   63.2234   20.1163 H       281      M_A    0.0000
   4994 H          56.8645   62.6012   19.4069 H       281      M_A    0.0000
   4995 C          56.6065   66.9474   16.9712 C.3     282      M_A    0.0000
   4996 C          57.9162   66.9881   16.2790 C.3     282      M_A    0.0000
   4997 C          58.9787   66.4350   17.1434 C.2     282      M_A    0.0000
   4998 O          60.0012   66.9516   17.4401 O.2     282      M_A    0.0000
   4999 O          58.6611   65.1948   17.5003 O.3     282      M_A    0.0000
   5000 C          59.5978   64.5881   18.3173 C.3     282      M_A    0.0000
   5001 H          56.7165   67.3135   17.9609 H       282      M_A    0.0000
   5002 H          55.9372   67.6171   16.4925 H       282      M_A    0.0000
   5003 H          57.8579   66.3212   15.4529 H       282      M_A    0.0000
   5004 H          59.2356   63.6287   18.5715 H       282      M_A    0.0000
   5005 H          59.7287   65.1434   19.2078 H       282      M_A    0.0000
   5006 H          60.5155   64.4753   17.8041 H       282      M_A    0.0000
   5007 C          58.2314   68.3494   15.6447 C.3     283      M_A    0.0000
   5008 C          59.6190   68.8482   15.7920 C.3     283      M_A    0.0000
   5009 C          60.5714   67.7216   15.8682 C.2     283      M_A    0.0000
   5010 O          61.3845   67.5273   16.7057 O.2     283      M_A    0.0000
   5011 O          60.4460   66.9594   14.7867 O.3     283      M_A    0.0000
   5012 C          61.2986   65.8705   14.7652 C.3     283      M_A    0.0000
   5013 H          57.5538   69.0620   16.0431 H       283      M_A    0.0000
   5014 H          57.9939   68.2761   14.6133 H       283      M_A    0.0000
   5015 H          59.8681   69.3595   14.8935 H       283      M_A    0.0000
   5016 H          61.0945   65.3144   13.8903 H       283      M_A    0.0000
   5017 H          61.1284   65.2494   15.6040 H       283      M_A    0.0000
   5018 H          62.3053   66.1921   14.7313 H       283      M_A    0.0000
   5019 C          59.7743   69.9114   16.8877 C.3     284      M_A    0.0000
   5020 C          60.0911   71.2882   16.4404 C.3     284      M_A    0.0000
   5021 C          61.3075   71.2960   15.6023 C.2     284      M_A    0.0000
   5022 O          62.2752   71.9604   15.7516 O.2     284      M_A    0.0000
   5023 O          61.1391   70.4801   14.5668 O.3     284      M_A    0.0000
   5024 C          62.2302   70.4162   13.7191 C.3     284      M_A    0.0000
   5025 H          60.5193   69.5780   17.5655 H       284      M_A    0.0000
   5026 H          58.8697   69.9233   17.4420 H       284      M_A    0.0000
   5027 H          59.3075   71.5980   15.7919 H       284      M_A    0.0000
   5028 H          62.0098   69.7186   12.9567 H       284      M_A    0.0000
   5029 H          63.0869   70.0820   14.2414 H       284      M_A    0.0000
   5030 H          62.4042   71.3584   13.2717 H       284      M_A    0.0000
   5031 C          60.0726   72.3202   17.5760 C.3     285      M_A    0.0000
   5032 C          59.7936   73.7251   17.1957 C.3     285      M_A    0.0000
   5033 C          59.9053   73.8999   15.7331 C.2     285      M_A    0.0000
   5034 O          60.5632   74.6962   15.1558 O.2     285      M_A    0.0000
   5035 O          59.0759   73.0615   15.1204 O.3     285      M_A    0.0000
   5036 C          59.1086   73.1476   13.7404 C.3     285      M_A    0.0000
   5037 H          61.0032   72.2677   18.0827 H       285      M_A    0.0000
   5038 H          59.3467   71.9978   18.2795 H       285      M_A    0.0000
   5039 H          58.7717   73.9159   17.4189 H       285      M_A    0.0000
   5040 H          58.4469   72.4206   13.3530 H       285      M_A    0.0000
   5041 H          60.0808   72.9420   13.3787 H       285      M_A    0.0000
   5042 H          58.7815   74.1019   13.4234 H       285      M_A    0.0000
   5043 C          60.5629   74.7516   18.0379 C.3     286      M_A    0.0000
   5044 C          60.2971   76.1813   17.7528 C.3     286      M_A    0.0000
   5045 C          59.5681   76.3304   16.4767 C.2     286      M_A    0.0000
   5046 O          59.8686   77.0104   15.5561 O.2     286      M_A    0.0000
   5047 O          58.4390   75.6312   16.5253 O.3     286      M_A    0.0000
   5048 C          57.6823   75.7054   15.3699 C.3     286      M_A    0.0000
   5049 H          61.5998   74.5547   17.9291 H       286      M_A    0.0000
   5050 H          60.3401   74.5507   19.0556 H       286      M_A    0.0000
   5051 H          59.6240   76.5322   18.4974 H       286      M_A    0.0000
   5052 H          56.8324   75.0906   15.4971 H       286      M_A    0.0000
   5053 H          58.2337   75.3473   14.5416 H       286      M_A    0.0000
   5054 H          57.3568   76.6982   15.2064 H       286      M_A    0.0000
   5055 C          61.5336   77.0767   17.9083 C.3     287      M_A    0.0000
   5056 C          61.6075   78.2694   17.0319 C.3     287      M_A    0.0000
   5057 C          61.1955   77.9292   15.6548 C.2     287      M_A    0.0000
   5058 O          61.8006   78.1270   14.6573 O.2     287      M_A    0.0000
   5059 O          59.9684   77.4189   15.6709 O.3     287      M_A    0.0000
   5060 C          59.4910   77.0647   14.4221 C.3     287      M_A    0.0000
   5061 H          62.3952   76.4750   17.7624 H       287      M_A    0.0000
   5062 H          61.5702   77.3855   18.9227 H       287      M_A    0.0000
   5063 H          60.8759   78.9601   17.3759 H       287      M_A    0.0000
   5064 H          58.5323   76.6391   14.5486 H       287      M_A    0.0000
   5065 H          60.1215   76.3428   13.9749 H       287      M_A    0.0000
   5066 H          59.4001   77.9199   13.8068 H       287      M_A    0.0000
   5067 C          62.9333   79.0334   17.1483 C.3     288      M_A    0.0000
   5068 C          63.2145   80.0437   16.1012 C.3     288      M_A    0.0000
   5069 C          62.7221   79.5822   14.7873 C.2     288      M_A    0.0000
   5070 O          63.3361   79.5087   13.7784 O.2     288      M_A    0.0000
   5071 O          61.4215   79.3205   14.8668 O.3     288      M_A    0.0000
   5072 C          60.8644   78.8770   13.6810 C.3     288      M_A    0.0000
   5073 H          63.7204   78.3226   17.1763 H       288      M_A    0.0000
   5074 H          62.9403   79.5040   18.0991 H       288      M_A    0.0000
   5075 H          62.6318   80.9039   16.3274 H       288      M_A    0.0000
   5076 H          59.8451   78.6637   13.8598 H       288      M_A    0.0000
   5077 H          61.3402   77.9900   13.3564 H       288      M_A    0.0000
   5078 H          60.9250   79.6305   12.9416 H       288      M_A    0.0000
   5079 C          64.6620   80.5531   16.1152 C.3     289      M_A    0.0000
   5080 C          64.8522   82.0222   16.0747 C.3     289      M_A    0.0000
   5081 C          63.8711   82.6980   16.9481 C.2     289      M_A    0.0000
   5082 O          63.1305   83.5716   16.6505 O.2     289      M_A    0.0000
   5083 O          63.9839   82.2320   18.1875 O.3     289      M_A    0.0000
   5084 C          63.1011   82.8044   19.0853 C.3     289      M_A    0.0000
   5085 H          65.1753   80.1061   15.3014 H       289      M_A    0.0000
   5086 H          65.1214   80.1651   16.9894 H       289      M_A    0.0000
   5087 H          65.7992   82.2305   16.5111 H       289      M_A    0.0000
   5088 H          63.2462   82.3423   20.0244 H       289      M_A    0.0000
   5089 H          62.1021   82.6378   18.7809 H       289      M_A    0.0000
   5090 H          63.2978   83.8385   19.1862 H       289      M_A    0.0000
   5091 C          64.9591   82.5866   14.6517 C.3     290      M_A    0.0000
   5092 C          65.8826   83.7288   14.4552 C.3     290      M_A    0.0000
   5093 C          67.2877   83.2866   14.5653 C.2     290      M_A    0.0000
   5094 O          68.1275   83.7390   15.2655 O.2     290      M_A    0.0000
   5095 O          67.5208   82.3216   13.6818 O.3     290      M_A    0.0000
   5096 C          68.8158   81.8367   13.7083 C.3     290      M_A    0.0000
   5097 H          63.9847   82.8588   14.3323 H       290      M_A    0.0000
   5098 H          65.2530   81.7867   14.0196 H       290      M_A    0.0000
   5099 H          65.7739   84.0535   13.4485 H       290      M_A    0.0000
   5100 H          68.8855   81.0551   13.0007 H       290      M_A    0.0000
   5101 H          69.0459   81.4451   14.6634 H       290      M_A    0.0000
   5102 H          69.4990   82.5968   13.4371 H       290      M_A    0.0000
   5103 C          65.5174   84.9622   15.2921 C.3     291      M_A    0.0000
   5104 C          66.1627   86.2409   14.9115 C.3     291      M_A    0.0000
   5105 C          66.4464   86.2692   13.4621 C.2     291      M_A    0.0000
   5106 O          67.4846   86.4931   12.9404 O.2     291      M_A    0.0000
   5107 O          65.3191   86.0784   12.7846 O.3     291      M_A    0.0000
   5108 C          65.4814   86.0857   11.4110 C.3     291      M_A    0.0000
   5109 H          65.7320   84.7449   16.3081 H       291      M_A    0.0000
   5110 H          64.4636   85.0736   15.2410 H       291      M_A    0.0000
   5111 H          65.4493   87.0136   15.0679 H       291      M_A    0.0000
   5112 H          64.5410   85.8902   10.9709 H       291      M_A    0.0000
   5113 H          66.1549   85.3268   11.1129 H       291      M_A    0.0000
   5114 H          65.8137   87.0351   11.0848 H       291      M_A    0.0000
   5115 C          67.3410   86.6250   15.8165 C.3     292      M_A    0.0000
   5116 C          67.5364   88.0703   16.0789 C.3     292      M_A    0.0000
   5117 C          66.2443   88.7851   16.0416 C.2     292      M_A    0.0000
   5118 O          65.9721   89.7382   15.3952 O.2     292      M_A    0.0000
   5119 O          65.4110   88.2439   16.9242 O.3     292      M_A    0.0000
   5120 C          64.1663   88.8457   16.9636 C.3     292      M_A    0.0000
   5121 H          68.2253   86.2180   15.3945 H       292      M_A    0.0000
   5122 H          67.2055   86.1175   16.7382 H       292      M_A    0.0000
   5123 H          67.8757   88.1663   17.0820 H       292      M_A    0.0000
   5124 H          63.5733   88.3217   17.6638 H       292      M_A    0.0000
   5125 H          63.6964   88.7886   16.0179 H       292      M_A    0.0000
   5126 H          64.2531   89.8502   17.2823 H       292      M_A    0.0000
   5127 C          68.6564   88.6990   15.2390 C.3     293      M_A    0.0000
   5128 C          69.6148   89.5742   15.9542 C.3     293      M_A    0.0000
   5129 C          68.9677   90.8426   16.3471 C.2     293      M_A    0.0000
   5130 O          69.3439   91.9401   16.1143 O.2     293      M_A    0.0000
   5131 O          67.9006   90.5841   17.0959 O.3     293      M_A    0.0000
   5132 C          67.2211   91.7138   17.5144 C.3     293      M_A    0.0000
   5133 H          68.2069   89.2394   14.4443 H       293      M_A    0.0000
   5134 H          69.1860   87.9033   14.7786 H       293      M_A    0.0000
   5135 H          69.8584   89.0935   16.8708 H       293      M_A    0.0000
   5136 H          66.3765   91.4000   18.0663 H       293      M_A    0.0000
   5137 H          66.8878   92.2757   16.6827 H       293      M_A    0.0000
   5138 H          67.8351   92.3000   18.1448 H       293      M_A    0.0000
   5139 C          70.9623   89.7226   15.2351 C.3     294      M_A    0.0000
   5140 C          72.1100   90.1748   16.0564 C.3     294      M_A    0.0000
   5141 C          71.9549   89.7301   17.4565 C.2     294      M_A    0.0000
   5142 O          71.9999   90.4017   18.4297 O.2     294      M_A    0.0000
   5143 O          71.8291   88.4076   17.4917 O.3     294      M_A    0.0000
   5144 C          71.6753   87.8918   18.7658 C.3     294      M_A    0.0000
   5145 H          70.8273   90.3859   14.4181 H       294      M_A    0.0000
   5146 H          71.1912   88.7811   14.8028 H       294      M_A    0.0000
   5147 H          72.9734   89.6667   15.6998 H       294      M_A    0.0000
   5148 H          71.5474   86.8465   18.6807 H       294      M_A    0.0000
   5149 H          70.8157   88.2978   19.2292 H       294      M_A    0.0000
   5150 H          72.5402   88.0781   19.3450 H       294      M_A    0.0000
   5151 C          72.4442   91.6615   15.8753 C.3     295      M_A    0.0000
   5152 C          73.7917   92.0995   16.3096 C.3     295      M_A    0.0000
   5153 C          73.9698   91.8747   17.7587 C.2     295      M_A    0.0000
   5154 O          74.3077   92.6674   18.5696 O.2     295      M_A    0.0000
   5155 O          73.7676   90.5911   18.0377 O.3     295      M_A    0.0000
   5156 C          73.9100   90.2785   19.3775 C.3     295      M_A    0.0000
   5157 H          71.7056   92.2284   16.3839 H       295      M_A    0.0000
   5158 H          72.3181   91.8871   14.8463 H       295      M_A    0.0000
   5159 H          74.4986   91.4575   15.8421 H       295      M_A    0.0000
   5160 H          73.6939   89.2511   19.4969 H       295      M_A    0.0000
   5161 H          73.2270   90.8346   19.9629 H       295      M_A    0.0000
   5162 H          74.9048   90.4509   19.6918 H       295      M_A    0.0000
   5163 C          74.1687   93.5021   15.8140 C.3     296      M_A    0.0000
   5164 C          75.3072   94.1651   16.4924 C.3     296      M_A    0.0000
   5165 C          75.0786   94.2284   17.9504 C.2     296      M_A    0.0000
   5166 O          75.1224   95.1885   18.6407 O.2     296      M_A    0.0000
   5167 O          74.8843   93.0018   18.4237 O.3     296      M_A    0.0000
   5168 C          74.6580   92.9553   19.7874 C.3     296      M_A    0.0000
   5169 H          73.3072   94.1174   15.8830 H       296      M_A    0.0000
   5170 H          74.3787   93.4212   14.7772 H       296      M_A    0.0000
   5171 H          76.1560   93.5358   16.3735 H       296      M_A    0.0000
   5172 H          74.4801   91.9484   20.0538 H       296      M_A    0.0000
   5173 H          73.8039   93.5248   20.0414 H       296      M_A    0.0000
   5174 H          75.5096   93.2962   20.3134 H       296      M_A    0.0000
   5175 C          75.7233   95.4891   15.8374 C.3     297      M_A    0.0000
   5176 C          76.4968   96.4340   16.6770 C.3     297      M_A    0.0000
   5177 C          75.7604   96.7503   17.9177 C.2     297      M_A    0.0000
   5178 O          75.4890   97.8239   18.3349 O.2     297      M_A    0.0000
   5179 O          75.4956   95.6268   18.5764 O.3     297      M_A    0.0000
   5180 C          74.8024   95.8185   19.7579 C.3     297      M_A    0.0000
   5181 H          74.8468   95.9680   15.4794 H       297      M_A    0.0000
   5182 H          76.2884   95.2461   14.9731 H       297      M_A    0.0000
   5183 H          77.3737   95.9258   16.9988 H       297      M_A    0.0000
   5184 H          74.6113   94.8694   20.1810 H       297      M_A    0.0000
   5185 H          73.8766   96.2947   19.5718 H       297      M_A    0.0000
   5186 H          75.3851   96.3788   20.4396 H       297      M_A    0.0000
   5187 C          77.0262   97.6486   15.9027 C.3     298      M_A    0.0000
   5188 C          77.1080   98.9285   16.6452 C.3     298      M_A    0.0000
   5189 C          75.7591   99.4880   16.8674 C.2     298      M_A    0.0000
   5190 O          75.3807  100.5746   16.5912 O.2     298      M_A    0.0000
   5191 O          75.0115   98.6017   17.5168 O.3     298      M_A    0.0000
   5192 C          73.7225   99.0337   17.7717 C.3     298      M_A    0.0000
   5193 H          76.4223   97.7766   15.0399 H       298      M_A    0.0000
   5194 H          77.9899   97.3924   15.5404 H       298      M_A    0.0000
   5195 H          77.4781   98.7069   17.6170 H       298      M_A    0.0000
   5196 H          73.2053   98.2485   18.2537 H       298      M_A    0.0000
   5197 H          73.2214   99.2597   16.8683 H       298      M_A    0.0000
   5198 H          73.7361   99.8719   18.4161 H       298      M_A    0.0000
   5199 C          78.1353   99.9090   16.0636 C.3     299      M_A    0.0000
   5200 C          77.8388  101.3530   16.2153 C.3     299      M_A    0.0000
   5201 C          76.7972  101.7737   15.2561 C.2     299      M_A    0.0000
   5202 O          76.8560  102.6668   14.4820 O.2     299      M_A    0.0000
   5203 O          75.7056  101.0368   15.4335 O.3     299      M_A    0.0000
   5204 C          74.6679  101.3549   14.5760 C.3     299      M_A    0.0000
   5205 H          78.2635   99.6790   15.0358 H       299      M_A    0.0000
   5206 H          79.0675   99.6934   16.5221 H       299      M_A    0.0000
   5207 H          77.4001  101.4864   17.1747 H       299      M_A    0.0000
   5208 H          73.8684  100.6926   14.7726 H       299      M_A    0.0000
   5209 H          74.9668  101.2295   13.5693 H       299      M_A    0.0000
   5210 H          74.3357  102.3434   14.7511 H       299      M_A    0.0000
   5211 C          79.0938  102.2355   16.2472 C.3     300      M_A    0.0000
   5212 C          79.2018  103.2788   15.2003 C.3     300      M_A    0.0000
   5213 C          80.5948  103.7564   15.0837 C.2     300      M_A    0.0000
   5214 O          80.9741  104.8761   15.1356 O.2     300      M_A    0.0000
   5215 O          81.3969  102.7291   14.8241 O.3     300      M_A    0.0000
   5216 C          82.7301  103.0753   14.6984 C.3     300      M_A    0.0000
   5217 H          79.9428  101.6007   16.2047 H       300      M_A    0.0000
   5218 H          79.1289  102.6945   17.2031 H       300      M_A    0.0000
   5219 H          78.9909  102.8137   14.2677 H       300      M_A    0.0000
   5220 H          83.2821  102.1899   14.5316 H       300      M_A    0.0000
   5221 H          83.0817  103.5265   15.5879 H       300      M_A    0.0000
   5222 H          82.8669  103.7173   13.8694 H       300      M_A    0.0000
   5223 C          78.1405  104.3805   15.3222 C.3     301      M_A    0.0000
   5224 C          78.0896  105.3808   14.2300 C.3     301      M_A    0.0000
   5225 C          76.7820  105.3361   13.5442 C.2     301      M_A    0.0000
   5226 O          76.5865  105.2133   12.3836 O.2     301      M_A    0.0000
   5227 O          75.8096  105.5376   14.4273 O.3     301      M_A    0.0000
   5228 C          74.5396  105.5118   13.8800 C.3     301      M_A    0.0000
   5229 H          78.2852  104.8747   16.2497 H       301      M_A    0.0000
   5230 H          77.1981  103.8993   15.3998 H       301      M_A    0.0000
   5231 H          78.1318  106.3430   14.6805 H       301      M_A    0.0000
   5232 H          73.8441  105.6437   14.6644 H       301      M_A    0.0000
   5233 H          74.3526  104.5780   13.4202 H       301      M_A    0.0000
   5234 H          74.4206  106.3036   13.1892 H       301      M_A    0.0000
   5235 C          79.3144  105.3415   13.3063 C.3     302      M_A    0.0000
   5236 C          80.1670  106.5533   13.2779 C.3     302      M_A    0.0000
   5237 C          80.4248  106.9754   11.8860 C.2     302      M_A    0.0000
   5238 O          81.4766  107.1765   11.3824 O.2     302      M_A    0.0000
   5239 O          79.2694  107.1850   11.2637 O.3     302      M_A    0.0000
   5240 C          79.4054  107.5839    9.9463 C.3     302      M_A    0.0000
   5241 H          78.9783  105.1208   12.3245 H       302      M_A    0.0000
   5242 H          79.9012  104.5081   13.6007 H       302      M_A    0.0000
   5243 H          79.6033  107.3464   13.7066 H       302      M_A    0.0000
   5244 H          78.4374  107.6865    9.5355 H       302      M_A    0.0000
   5245 H          79.9297  106.8534    9.3896 H       302      M_A    0.0000
   5246 H          79.8932  108.5207    9.8941 H       302      M_A    0.0000
   5247 C          81.4108  106.4477   14.1706 C.3     303      M_A    0.0000
   5248 C          82.7226  106.6568   13.5136 C.3     303      M_A    0.0000
   5249 C          82.5903  107.5844   12.3716 C.2     303      M_A    0.0000
   5250 O          82.9413  107.4012   11.2565 O.2     303      M_A    0.0000
   5251 O          82.0730  108.7346   12.7906 O.3     303      M_A    0.0000
   5252 C          81.9069  109.6737   11.7888 C.3     303      M_A    0.0000
   5253 H          81.3972  105.4971   14.6416 H       303      M_A    0.0000
   5254 H          81.2950  107.1549   14.9529 H       303      M_A    0.0000
   5255 H          83.3472  107.1632   14.2092 H       303      M_A    0.0000
   5256 H          81.4589  110.5299   12.2161 H       303      M_A    0.0000
   5257 H          81.2662  109.3018   11.0341 H       303      M_A    0.0000
   5258 H          82.8442  109.9512   11.3856 H       303      M_A    0.0000
   5259 C          83.4716  105.3516   13.2129 C.3     304      M_A    0.0000
   5260 C          84.4112  104.8678   14.2517 C.3     304      M_A    0.0000
   5261 C          85.0021  106.0037   14.9883 C.2     304      M_A    0.0000
   5262 O          86.1517  106.2234   15.1624 O.2     304      M_A    0.0000
   5263 O          84.0329  106.7404   15.5214 O.3     304      M_A    0.0000
   5264 C          84.4871  107.8356   16.2336 C.3     304      M_A    0.0000
   5265 H          83.9894  105.4742   12.2951 H       304      M_A    0.0000
   5266 H          82.7392  104.6062   13.0294 H       304      M_A    0.0000
   5267 H          83.8382  104.3387   14.9744 H       304      M_A    0.0000
   5268 H          83.6446  108.3703   16.5811 H       304      M_A    0.0000
   5269 H          85.0551  108.4739   15.6105 H       304      M_A    0.0000
   5270 H          85.0535  107.5217   17.0695 H       304      M_A    0.0000
   5271 C          85.4163  103.8307   13.7328 C.3     305      M_A    0.0000
   5272 C          85.4001  102.5012   14.3871 C.2     305      M_A    0.0000
   5273 C          84.0523  101.9011   14.3124 C.2     305      M_A    0.0000
   5274 O          83.4048  101.4822   15.2098 O.2     305      M_A    0.0000
   5275 O          83.6729  101.8169   13.0415 O.3     305      M_A    0.0000
   5276 C          82.4160  101.2670   12.8659 C.3     305      M_A    0.0000
   5277 H          86.3880  104.2503   13.8054 H       305      M_A    0.0000
   5278 H          85.2344  103.7116   12.6943 H       305      M_A    0.0000
   5279 H          86.0205  101.8579   13.8110 H       305      M_A    0.0000
   5280 H          82.1964  101.2796   11.8325 H       305      M_A    0.0000
   5281 H          81.6856  101.8419   13.3705 H       305      M_A    0.0000
   5282 H          82.4035  100.2636   13.1995 H       305      M_A    0.0000
   5283 C          88.7083  102.4697   19.8003 C.2     306      M_A    0.0000
   5284 C          89.7361  101.2869   19.8332 C.3     306      M_A    0.0000
   5285 C          89.2727  100.1291   18.8921 C.2     306      M_A    0.0000
   5286 O          89.1306   98.9220   19.1906 O.2     306      M_A    0.0000
   5287 O          89.1059  100.6225   17.5866 O.3     306      M_A    0.0000
   5288 C          88.6686   99.6136   16.6217 C.3     306      M_A    0.0000
   5289 H          87.8433  102.2345   20.4752 H       306      M_A    0.0000
   5290 H          89.1871  103.3877   20.2330 H       306      M_A    0.0000
   5291 H          90.6943  101.6640   19.3814 H       306      M_A    0.0000
   5292 H          88.5308  100.1183   15.6343 H       306      M_A    0.0000
   5293 H          87.6897   99.1711   16.9330 H       306      M_A    0.0000
   5294 H          89.4481   98.8196   16.5088 H       306      M_A    0.0000
   5295 C          90.1531  100.8332   21.3347 C.3     307      M_A    0.0000
   5296 C          89.9053   99.3322   21.7121 C.3     307      M_A    0.0000
   5297 C          90.8400   98.3949   20.8823 C.2     307      M_A    0.0000
   5298 O          90.5005   97.4144   20.1825 O.2     307      M_A    0.0000
   5299 O          92.1807   98.7589   21.0958 O.3     307      M_A    0.0000
   5300 C          93.1431   97.9402   20.3586 C.3     307      M_A    0.0000
   5301 H          89.6131  101.4969   22.0606 H       307      M_A    0.0000
   5302 H          91.2422  101.0713   21.4614 H       307      M_A    0.0000
   5303 H          90.2313   99.1979   22.7800 H       307      M_A    0.0000
   5304 H          94.1660   98.3379   20.5687 H       307      M_A    0.0000
   5305 H          92.9554   98.0093   19.2581 H       307      M_A    0.0000
   5306 H          93.0969   96.8781   20.7058 H       307      M_A    0.0000
   5307 C          88.3364   98.9165   21.7173 C.3     308      M_A    0.0000
   5308 C          87.9385   97.6772   22.5904 C.3     308      M_A    0.0000
   5309 C          88.8872   97.5463   23.8247 C.2     308      M_A    0.0000
   5310 O          89.5426   96.5382   24.1720 O.2     308      M_A    0.0000
   5311 O          88.8469   98.7330   24.5768 O.3     308      M_A    0.0000
   5312 C          89.7068   98.7158   25.7601 C.3     308      M_A    0.0000
   5313 H          88.0191   98.7447   20.6549 H       308      M_A    0.0000
   5314 H          87.7580   99.8136   22.0633 H       308      M_A    0.0000
   5315 H          86.9224   97.8866   23.0246 H       308      M_A    0.0000
   5316 H          89.6285   99.7134   26.2574 H       308      M_A    0.0000
   5317 H          90.7734   98.5485   25.4678 H       308      M_A    0.0000
   5318 H          89.3623   97.9323   26.4801 H       308      M_A    0.0000
   5319 C          87.7327   96.3174   21.7286 C.3     309      M_A    0.0000
   5320 C          87.4464   95.0061   22.5381 C.3     309      M_A    0.0000
   5321 C          86.6908   95.3333   23.8658 C.2     309      M_A    0.0000
   5322 O          87.0162   94.9930   25.0254 O.2     309      M_A    0.0000
   5323 O          85.5004   96.0207   23.5724 O.3     309      M_A    0.0000
   5324 C          84.7144   96.3781   24.7533 C.3     309      M_A    0.0000
   5325 H          88.6418   96.1717   21.0873 H       309      M_A    0.0000
   5326 H          86.8871   96.5032   21.0148 H       309      M_A    0.0000
   5327 H          86.7229   94.3920   21.9346 H       309      M_A    0.0000
   5328 H          83.8179   96.9501   24.4101 H       309      M_A    0.0000
   5329 H          85.3103   97.0313   25.4384 H       309      M_A    0.0000
   5330 H          84.3663   95.4565   25.2826 H       309      M_A    0.0000
   5331 C          88.7465   94.0482   22.6998 C.3     310      M_A    0.0000
   5332 C          88.4938   92.5022   22.6500 C.3     310      M_A    0.0000
   5333 C          88.8700   91.9283   21.2465 C.2     310      M_A    0.0000
   5334 O          88.1490   91.2349   20.4943 O.2     310      M_A    0.0000
   5335 O          90.2109   92.2346   20.9572 O.3     310      M_A    0.0000
   5336 C          90.6657   91.7414   19.6572 C.3     310      M_A    0.0000
   5337 H          89.2563   94.3144   23.6633 H       310      M_A    0.0000
   5338 H          89.4684   94.3312   21.8888 H       310      M_A    0.0000
   5339 H          89.2171   92.0221   23.3648 H       310      M_A    0.0000
   5340 H          91.7236   92.0719   19.5143 H       310      M_A    0.0000
   5341 H          90.0450   92.1751   18.8339 H       310      M_A    0.0000
   5342 H          90.6366   90.6237   19.6332 H       310      M_A    0.0000
   5343 C          87.0327   92.0668   23.2066 C.3     311      M_A    0.0000
   5344 C          86.7382   90.5294   23.2869 C.3     311      M_A    0.0000
   5345 C          88.0558   89.7295   23.5414 C.2     311      M_A    0.0000
   5346 O          88.4996   88.7694   22.8724 O.2     311      M_A    0.0000
   5347 O          88.6674   90.1930   24.7190 O.3     311      M_A    0.0000
   5348 C          89.9170   89.5076   25.0488 C.3     311      M_A    0.0000
   5349 H          86.2554   92.5651   22.5689 H       311      M_A    0.0000
   5350 H          86.9197   92.5187   24.2274 H       311      M_A    0.0000
   5351 H          86.1106   90.3568   24.2039 H       311      M_A    0.0000
   5352 H          90.3341   89.9776   25.9729 H       311      M_A    0.0000
   5353 H          90.6612   89.6293   24.2227 H       311      M_A    0.0000
   5354 H          89.7242   88.4258   25.2567 H       311      M_A    0.0000
   5355 C          85.8210   89.9813   22.0652 C.3     312      M_A    0.0000
   5356 C          84.7679   88.8746   22.4158 C.3     312      M_A    0.0000
   5357 C          85.2767   87.9847   23.5947 C.2     312      M_A    0.0000
   5358 O          85.3687   86.7368   23.6160 O.2     312      M_A    0.0000
   5359 O          85.5545   88.7947   24.7094 O.3     312      M_A    0.0000
   5360 C          86.0424   88.0556   25.8738 C.3     312      M_A    0.0000
   5361 H          86.5049   89.6066   21.2584 H       312      M_A    0.0000
   5362 H          85.2929   90.8680   21.6248 H       312      M_A    0.0000
   5363 H          83.8559   89.3962   22.8168 H       312      M_A    0.0000
   5364 H          86.2670   88.7946   26.6814 H       312      M_A    0.0000
   5365 H          86.9845   87.5070   25.6238 H       312      M_A    0.0000
   5366 H          85.2566   87.3518   26.2451 H       312      M_A    0.0000
   5367 C          84.2266   88.0622   21.1193 C.3     313      M_A    0.0000
   5368 C          82.8869   87.2675   21.2940 C.3     313      M_A    0.0000
   5369 C          81.7460   88.2142   21.7867 C.2     313      M_A    0.0000
   5370 O          81.0071   88.0537   22.7840 O.2     313      M_A    0.0000
   5371 O          81.5928   89.2775   20.8802 O.3     313      M_A    0.0000
   5372 C          80.5454   90.2287   21.2519 C.3     313      M_A    0.0000
   5373 H          85.0373   87.3623   20.7846 H       313      M_A    0.0000
   5374 H          84.1091   88.8067   20.2880 H       313      M_A    0.0000
   5375 H          82.5635   86.9287   20.2716 H       313      M_A    0.0000
   5376 H          80.5366   91.0464   20.4903 H       313      M_A    0.0000
   5377 H          80.7615   90.6791   22.2527 H       313      M_A    0.0000
   5378 H          79.5454   89.7280   21.2467 H       313      M_A    0.0000
   5379 C          83.0560   85.8908   22.1368 C.3     314      M_A    0.0000
   5380 C          82.3305   84.6229   21.5689 C.3     314      M_A    0.0000
   5381 C          81.2985   85.0266   20.4677 C.2     314      M_A    0.0000
   5382 O          80.0851   84.7235   20.4199 O.2     314      M_A    0.0000
   5383 O          81.9533   85.7382   19.4476 O.3     314      M_A    0.0000
   5384 C          81.0713   86.1672   18.3623 C.3     314      M_A    0.0000
   5385 H          82.7108   86.0821   23.1872 H       314      M_A    0.0000
   5386 H          84.1561   85.6837   22.2142 H       314      M_A    0.0000
   5387 H          83.1039   84.0077   21.0322 H       314      M_A    0.0000
   5388 H          81.6827   86.7524   17.6325 H       314      M_A    0.0000
   5389 H          80.2593   86.8288   18.7547 H       314      M_A    0.0000
   5390 H          80.6431   85.2790   17.8347 H       314      M_A    0.0000
   5391 C          81.7607   83.6325   22.7215 C.3     315      M_A    0.0000
   5392 C          81.6716   82.1096   22.3616 C.3     315      M_A    0.0000
   5393 C          80.6563   81.8781   21.1969 C.2     315      M_A    0.0000
   5394 O          79.6846   81.0894   21.1855 O.2     315      M_A    0.0000
   5395 O          81.0377   82.6435   20.0814 O.3     315      M_A    0.0000
   5396 C          80.1468   82.5000   18.9300 C.3     315      M_A    0.0000
   5397 H          80.7484   84.0051   23.0303 H       315      M_A    0.0000
   5398 H          82.4170   83.7616   23.6224 H       315      M_A    0.0000
   5399 H          82.6701   81.8062   21.9425 H       315      M_A    0.0000
   5400 H          80.5178   83.1758   18.1211 H       315      M_A    0.0000
   5401 H          79.1056   82.8077   19.1987 H       315      M_A    0.0000
   5402 H          80.1673   81.4480   18.5509 H       315      M_A    0.0000
   5403 C          81.4719   81.1493   23.6547 C.3     316      M_A    0.0000
   5404 C          81.3057   79.6161   23.3754 C.3     316      M_A    0.0000
   5405 C          82.3681   79.1273   22.3395 C.2     316      M_A    0.0000
   5406 O          82.1566   78.5014   21.2765 O.2     316      M_A    0.0000
   5407 O          83.6579   79.4214   22.8142 O.3     316      M_A    0.0000
   5408 C          84.7320   79.0046   21.9128 C.3     316      M_A    0.0000
   5409 H          80.5857   81.5241   24.2320 H       316      M_A    0.0000
   5410 H          82.3576   81.3092   24.3249 H       316      M_A    0.0000
   5411 H          81.5563   79.0737   24.3281 H       316      M_A    0.0000
   5412 H          85.7037   79.3196   22.3660 H       316      M_A    0.0000
   5413 H          84.6262   79.5055   20.9183 H       316      M_A    0.0000
   5414 H          84.7366   77.8918   21.8013 H       316      M_A    0.0000
   5415 C          79.7757   79.1783   23.0563 C.3     317      M_A    0.0000
   5416 C          79.3574   77.7254   23.4693 C.3     317      M_A    0.0000
   5417 C          80.3220   76.6736   22.8338 C.2     317      M_A    0.0000
   5418 O          80.0077   75.6786   22.1427 O.2     317      M_A    0.0000
   5419 O          81.6438   76.9527   23.2220 O.3     317      M_A    0.0000
   5420 C          82.6322   76.0227   22.6759 C.3     317      M_A    0.0000
   5421 H          79.5947   79.3234   21.9585 H       317      M_A    0.0000
   5422 H          79.1063   79.9165   23.5722 H       317      M_A    0.0000
   5423 H          79.5169   77.6343   24.5788 H       317      M_A    0.0000
   5424 H          83.6436   76.3580   23.0128 H       317      M_A    0.0000
   5425 H          82.6086   76.0369   21.5578 H       317      M_A    0.0000
   5426 H          82.4523   74.9902   23.0663 H       317      M_A    0.0000
   5427 C          77.7754   77.4248   23.2665 C.3     318      M_A    0.0000
   5428 C          77.3514   75.9195   23.1630 C.3     318      M_A    0.0000
   5429 C          78.3600   75.0096   23.9348 C.2     318      M_A    0.0000
   5430 O          78.9695   74.0102   23.4920 O.2     318      M_A    0.0000
   5431 O          78.4382   75.4256   25.2751 O.3     318      M_A    0.0000
   5432 C          79.3624   74.6361   26.0891 C.3     318      M_A    0.0000
   5433 H          77.4319   77.9754   22.3511 H       318      M_A    0.0000
   5434 H          77.2353   77.9028   24.1261 H       318      M_A    0.0000
   5435 H          76.3775   75.8080   23.7142 H       318      M_A    0.0000
   5436 H          79.3761   75.0739   27.1171 H       318      M_A    0.0000
   5437 H          80.3976   74.6873   25.6685 H       318      M_A    0.0000
   5438 H          79.0116   73.5765   26.1591 H       318      M_A    0.0000
   5439 C          77.0107   75.4454   21.6486 C.3     319      M_A    0.0000
   5440 C          75.7208   74.5764   21.4553 C.3     319      M_A    0.0000
   5441 C          74.6465   74.9397   22.5299 C.2     319      M_A    0.0000
   5442 O          74.0574   74.1549   23.3067 O.2     319      M_A    0.0000
   5443 O          74.3518   76.3120   22.4551 O.3     319      M_A    0.0000
   5444 C          73.3530   76.7588   23.4260 C.3     319      M_A    0.0000
   5445 H          77.9006   74.8903   21.2500 H       319      M_A    0.0000
   5446 H          76.9289   76.3730   21.0225 H       319      M_A    0.0000
   5447 H          75.2620   74.8732   20.4724 H       319      M_A    0.0000
   5448 H          73.2253   77.8624   23.3057 H       319      M_A    0.0000
   5449 H          73.7009   76.5542   24.4692 H       319      M_A    0.0000
   5450 H          72.3697   76.2641   23.2285 H       319      M_A    0.0000
   5451 C          76.0269   72.9909   21.2914 C.3     320      M_A    0.0000
   5452 C          74.7852   72.0391   21.1981 C.3     320      M_A    0.0000
   5453 C          73.4834   72.7896   21.6256 C.2     320      M_A    0.0000
   5454 O          72.6527   72.4315   22.4905 O.2     320      M_A    0.0000
   5455 O          73.3123   73.9299   20.8218 O.3     320      M_A    0.0000
   5456 C          72.1170   74.7094   21.1433 C.3     320      M_A    0.0000
   5457 H          76.6802   72.6731   22.1465 H       320      M_A    0.0000
   5458 H          76.6560   72.8693   20.3702 H       320      M_A    0.0000
   5459 H          74.6351   71.7909   20.1116 H       320      M_A    0.0000
   5460 H          72.1008   75.6060   20.4765 H       320      M_A    0.0000
   5461 H          72.1501   75.0586   22.2054 H       320      M_A    0.0000
   5462 H          71.1953   74.1063   20.9496 H       320      M_A    0.0000
   5463 C          75.0187   70.5988   21.9090 C.3     321      M_A    0.0000
   5464 C          73.8461   70.0503   22.7925 C.3     321      M_A    0.0000
   5465 C          73.3523   71.1444   23.7925 C.2     321      M_A    0.0000
   5466 O          73.2361   71.0380   25.0340 O.2     321      M_A    0.0000
   5467 O          72.9596   72.2903   23.0795 O.3     321      M_A    0.0000
   5468 C          72.4802   73.3820   23.9271 C.3     321      M_A    0.0000
   5469 H          75.9545   70.6631   22.5248 H       321      M_A    0.0000
   5470 H          75.2442   69.8609   21.0943 H       321      M_A    0.0000
   5471 H          72.9722   69.8636   22.1097 H       321      M_A    0.0000
   5472 H          72.2343   74.2488   23.2661 H       321      M_A    0.0000
   5473 H          73.2763   73.6994   24.6458 H       321      M_A    0.0000
   5474 H          71.5518   73.0745   24.4695 H       321      M_A    0.0000
   5475 C          74.1558   68.5998   23.4516 C.3     322      M_A    0.0000
   5476 C          73.9876   68.4809   25.0053 C.3     322      M_A    0.0000
   5477 C          73.8776   69.8967   25.6566 C.2     322      M_A    0.0000
   5478 O          74.5658   70.3525   26.5974 O.2     322      M_A    0.0000
   5479 O          72.8040   70.5974   25.0804 O.3     322      M_A    0.0000
   5480 C          72.6145   71.9433   25.6212 C.3     322      M_A    0.0000
   5481 H          75.1987   68.3028   23.1630 H       322      M_A    0.0000
   5482 H          73.4812   67.8575   22.9487 H       322      M_A    0.0000
   5483 H          72.9925   67.9935   25.1974 H       322      M_A    0.0000
   5484 H          71.7676   72.4200   25.0697 H       322      M_A    0.0000
   5485 H          73.5327   72.5623   25.4639 H       322      M_A    0.0000
   5486 H          72.3478   71.8927   26.7062 H       322      M_A    0.0000
   5487 C          75.0628   67.4821   25.6984 C.3     323      M_A    0.0000
   5488 C          74.7799   65.9455   25.5738 C.3     323      M_A    0.0000
   5489 C          74.9280   65.2446   26.9622 C.2     323      M_A    0.0000
   5490 O          75.6379   64.2510   27.2365 O.2     323      M_A    0.0000
   5491 O          74.0607   65.8485   27.8889 O.3     323      M_A    0.0000
   5492 C          74.1233   65.2648   29.2288 C.3     323      M_A    0.0000
   5493 H          75.1483   67.7615   26.7817 H       323      M_A    0.0000
   5494 H          76.0648   67.7112   25.2482 H       323      M_A    0.0000
   5495 H          73.6954   65.8264   25.3013 H       323      M_A    0.0000
   5496 H          73.4292   65.8410   29.8882 H       323      M_A    0.0000
   5497 H          75.1581   65.3481   29.6451 H       323      M_A    0.0000
   5498 H          73.7869   64.1986   29.2048 H       323      M_A    0.0000
   5499 C          75.5796   65.2369   24.3521 C.3     324      M_A    0.0000
   5500 C          75.2363   63.7355   24.0617 C.3     324      M_A    0.0000
   5501 C          74.4631   63.1053   25.2641 C.2     324      M_A    0.0000
   5502 O          74.7533   62.0585   25.8855 O.2     324      M_A    0.0000
   5503 O          73.3007   63.8532   25.5195 O.3     324      M_A    0.0000
   5504 C          72.5011   63.3459   26.6346 C.3     324      M_A    0.0000
   5505 H          76.6791   65.3389   24.5513 H       324      M_A    0.0000
   5506 H          75.3825   65.8462   23.4307 H       324      M_A    0.0000
   5507 H          74.5074   63.7189   23.2054 H       324      M_A    0.0000
   5508 H          71.6299   64.0317   26.7737 H       324      M_A    0.0000
   5509 H          73.1020   63.3407   27.5779 H       324      M_A    0.0000
   5510 H          72.1139   62.3228   26.4019 H       324      M_A    0.0000
   5511 C          76.5029   62.8738   23.5257 C.3     325      M_A    0.0000
   5512 C          76.1928   61.4518   22.9440 C.3     325      M_A    0.0000
   5513 C          75.1536   60.7053   23.8405 C.2     325      M_A    0.0000
   5514 O          75.2692   59.5656   24.3445 O.2     325      M_A    0.0000
   5515 O          73.9842   61.4778   23.9477 O.3     325      M_A    0.0000
   5516 C          72.9423   60.8666   24.7728 C.3     325      M_A    0.0000
   5517 H          77.2416   62.7830   24.3655 H       325      M_A    0.0000
   5518 H          77.0140   63.4911   22.7403 H       325      M_A    0.0000
   5519 H          75.6736   61.6001   21.9576 H       325      M_A    0.0000
   5520 H          72.0808   61.5768   24.8216 H       325      M_A    0.0000
   5521 H          73.3167   60.6921   25.8122 H       325      M_A    0.0000
   5522 H          72.5893   59.9118   24.3097 H       325      M_A    0.0000
   5523 C          77.5234   60.6003   22.5717 C.3     326      M_A    0.0000
   5524 C          77.2999   59.1794   21.9491 C.3     326      M_A    0.0000
   5525 C          77.1735   59.2734   20.3948 C.2     326      M_A    0.0000
   5526 O          76.2492   58.8221   19.6819 O.2     326      M_A    0.0000
   5527 O          78.3226   59.8862   19.8657 O.3     326      M_A    0.0000
   5528 C          78.3043   60.0257   18.4096 C.3     326      M_A    0.0000
   5529 H          78.1486   60.5098   23.4990 H       326      M_A    0.0000
   5530 H          78.1271   61.2245   21.8610 H       326      M_A    0.0000
   5531 H          78.2368   58.5842   22.1299 H       326      M_A    0.0000
   5532 H          79.2389   60.5559   18.1027 H       326      M_A    0.0000
   5533 H          77.4266   60.6385   18.0851 H       326      M_A    0.0000
   5534 H          78.2908   59.0192   17.9224 H       326      M_A    0.0000
   5535 C          76.1343   58.3250   22.6877 C.3     327      M_A    0.0000
   5536 C          76.5148   56.8829   23.1694 C.3     327      M_A    0.0000
   5537 C          77.4386   56.9491   24.4276 C.2     327      M_A    0.0000
   5538 O          78.5519   56.3977   24.5790 O.2     327      M_A    0.0000
   5539 O          76.7949   57.6729   25.4461 O.3     327      M_A    0.0000
   5540 C          77.5800   57.7964   26.6742 C.3     327      M_A    0.0000
   5541 H          75.2529   58.2693   21.9954 H       327      M_A    0.0000
   5542 H          75.7885   58.9295   23.5675 H       327      M_A    0.0000
   5543 H          75.5696   56.3898   23.5273 H       327      M_A    0.0000
   5544 H          76.9953   58.4179   27.3958 H       327      M_A    0.0000
   5545 H          78.5513   58.3118   26.4689 H       327      M_A    0.0000
   5546 H          77.7506   56.7895   27.1300 H       327      M_A    0.0000
   5547 C          77.0412   55.9190   21.9744 C.3     328      M_A    0.0000
   5548 C          76.3407   54.5241   21.8335 C.3     328      M_A    0.0000
   5549 C          74.8699   54.6949   21.3352 C.2     328      M_A    0.0000
   5550 O          73.8331   54.2361   21.8651 O.2     328      M_A    0.0000
   5551 O          74.8647   55.3928   20.1151 O.3     328      M_A    0.0000
   5552 C          73.5286   55.6093   19.5603 C.3     328      M_A    0.0000
   5553 H          78.1457   55.7728   22.1073 H       328      M_A    0.0000
   5554 H          76.9260   56.4892   21.0149 H       328      M_A    0.0000
   5555 H          76.8653   53.9684   21.0085 H       328      M_A    0.0000
   5556 H          73.6383   56.2021   18.6194 H       328      M_A    0.0000
   5557 H          72.8967   56.1931   20.2751 H       328      M_A    0.0000
   5558 H          73.0482   54.6310   19.3095 H       328      M_A    0.0000
   5559 C          76.5239   53.5731   23.1359 C.3     329      M_A    0.0000
   5560 C          76.5924   52.0287   22.8772 C.3     329      M_A    0.0000
   5561 C          78.0748   51.5636   22.7134 C.2     329      M_A    0.0000
   5562 O          78.5618   50.9076   21.7653 O.2     329      M_A    0.0000
   5563 O          78.8091   51.9213   23.8573 O.3     329      M_A    0.0000
   5564 C          80.2180   51.5314   23.8046 C.3     329      M_A    0.0000
   5565 H          75.6880   53.7974   23.8501 H       329      M_A    0.0000
   5566 H          77.4617   53.9027   23.6565 H       329      M_A    0.0000
   5567 H          76.2276   51.5171   23.8099 H       329      M_A    0.0000
   5568 H          80.7115   51.8961   24.7385 H       329      M_A    0.0000
   5569 H          80.7242   52.0067   22.9277 H       329      M_A    0.0000
   5570 H          80.3123   50.4177   23.7650 H       329      M_A    0.0000
   5571 C          75.5757   51.5207   21.7186 C.3     330      M_A    0.0000
   5572 C          74.6300   50.3257   22.0848 C.3     330      M_A    0.0000
   5573 C          73.4446   50.8155   22.9767 C.2     330      M_A    0.0000
   5574 O          73.0904   50.3545   24.0850 O.2     330      M_A    0.0000
   5575 O          72.7429   51.8339   22.3085 O.3     330      M_A    0.0000
   5576 C          71.6083   52.3667   23.0627 C.3     330      M_A    0.0000
   5577 H          76.1847   51.2542   20.8146 H       330      M_A    0.0000
   5578 H          74.9543   52.4039   21.4136 H       330      M_A    0.0000
   5579 H          74.1507   49.9741   21.1301 H       330      M_A    0.0000
   5580 H          71.1508   53.1897   22.4609 H       330      M_A    0.0000
   5581 H          71.9507   52.7906   24.0395 H       330      M_A    0.0000
   5582 H          70.8379   51.5716   23.2202 H       330      M_A    0.0000
   5583 C          75.4203   49.0212   22.6397 C.3     331      M_A    0.0000
   5584 C          74.6466   47.6587   22.6009 C.3     331      M_A    0.0000
   5585 C          73.5998   47.6534   21.4413 C.2     331      M_A    0.0000
   5586 O          72.3778   47.3969   21.5259 O.2     331      M_A    0.0000
   5587 O          74.2492   47.9051   20.2203 O.3     331      M_A    0.0000
   5588 C          73.3534   47.9239   19.0640 C.3     331      M_A    0.0000
   5589 H          75.7501   49.2360   23.6906 H       331      M_A    0.0000
   5590 H          76.3646   48.9273   22.0409 H       331      M_A    0.0000
   5591 H          75.3895   46.8602   22.3268 H       331      M_A    0.0000
   5592 H          73.9629   48.1695   18.1601 H       331      M_A    0.0000
   5593 H          72.5696   48.7123   19.1875 H       331      M_A    0.0000
   5594 H          72.8882   46.9178   18.9157 H       331      M_A    0.0000
   5595 C          74.0777   47.1958   24.0488 C.3     332      M_A    0.0000
   5596 C          72.8336   46.2426   24.0455 C.3     332      M_A    0.0000
   5597 C          71.9230   46.5308   22.8091 C.2     332      M_A    0.0000
   5598 O          70.6960   46.7772   22.8139 O.2     332      M_A    0.0000
   5599 O          72.6741   46.3918   21.6292 O.3     332      M_A    0.0000
   5600 C          71.9116   46.6440   20.4066 C.3     332      M_A    0.0000
   5601 H          73.8414   48.1195   24.6405 H       332      M_A    0.0000
   5602 H          74.9236   46.6979   24.5925 H       332      M_A    0.0000
   5603 H          73.2148   45.1962   23.8892 H       332      M_A    0.0000
   5604 H          72.6092   46.5455   19.5391 H       332      M_A    0.0000
   5605 H          71.4958   47.6823   20.4105 H       332      M_A    0.0000
   5606 H          71.0958   45.8873   20.2937 H       332      M_A    0.0000
   5607 C          72.0631   46.1788   25.4725 C.3     333      M_A    0.0000
   5608 C          70.6893   45.4247   25.4989 C.3     333      M_A    0.0000
   5609 C          70.0099   45.5680   26.8984 C.2     333      M_A    0.0000
   5610 O          69.5896   44.6465   27.6336 O.2     333      M_A    0.0000
   5611 O          69.8491   46.9301   27.2059 O.3     333      M_A    0.0000
   5612 C          69.2206   47.1758   28.5038 C.3     333      M_A    0.0000
   5613 H          71.9213   47.2302   25.8379 H       333      M_A    0.0000
   5614 H          72.7634   45.6971   26.2050 H       333      M_A    0.0000
   5615 H          70.0021   45.9570   24.7853 H       333      M_A    0.0000
   5616 H          69.1782   48.2812   28.6622 H       333      M_A    0.0000
   5617 H          69.8288   46.7233   29.3263 H       333      M_A    0.0000
   5618 H          68.1763   46.7757   28.5125 H       333      M_A    0.0000
   5619 C          70.7709   43.9102   24.9211 C.3     334      M_A    0.0000
   5620 C          69.4203   43.2523   24.4746 C.3     334      M_A    0.0000
   5621 C          68.5324   44.2844   23.7083 C.2     334      M_A    0.0000
   5622 O          67.3447   44.5917   23.9553 O.2     334      M_A    0.0000
   5623 O          69.2427   44.7881   22.6049 O.3     334      M_A    0.0000
   5624 C          68.4977   45.7698   21.8168 C.3     334      M_A    0.0000
   5625 H          71.2624   43.2679   25.6989 H       334      M_A    0.0000
   5626 H          71.4798   43.9260   24.0515 H       334      M_A    0.0000
   5627 H          69.6690   42.4610   23.7151 H       334      M_A    0.0000
   5628 H          69.1646   46.1300   20.9957 H       334      M_A    0.0000
   5629 H          68.2113   46.6459   22.4504 H       334      M_A    0.0000
   5630 H          67.5944   45.2960   21.3583 H       334      M_A    0.0000
   5631 C          68.6699   42.4429   25.6645 C.3     335      M_A    0.0000
   5632 C          67.1821   42.0247   25.4035 C.3     335      M_A    0.0000
   5633 C          66.4268   43.1422   24.6151 C.2     335      M_A    0.0000
   5634 O          65.3483   43.6936   24.9301 O.2     335      M_A    0.0000
   5635 O          67.1008   43.4050   23.4100 O.3     335      M_A    0.0000
   5636 C          66.4734   44.4437   22.5929 C.3     335      M_A    0.0000
   5637 H          68.7271   43.0644   26.5970 H       335      M_A    0.0000
   5638 H          69.2801   41.5253   25.8760 H       335      M_A    0.0000
   5639 H          67.2004   41.1399   24.7096 H       335      M_A    0.0000
   5640 H          67.1075   44.5981   21.6858 H       335      M_A    0.0000
   5641 H          66.4210   45.4082   23.1567 H       335      M_A    0.0000
   5642 H          65.4557   44.1177   22.2633 H       335      M_A    0.0000
   5643 C          66.4212   41.4781   26.7288 C.3     336      M_A    0.0000
   5644 C          66.4000   39.9251   26.9395 C.3     336      M_A    0.0000
   5645 C          65.3441   39.2570   26.0016 C.2     336      M_A    0.0000
   5646 O          64.4185   38.4831   26.3342 O.2     336      M_A    0.0000
   5647 O          65.6278   39.5857   24.6647 O.3     336      M_A    0.0000
   5648 C          64.6917   39.0089   23.6998 C.3     336      M_A    0.0000
   5649 H          65.3695   41.8690   26.7115 H       336      M_A    0.0000
   5650 H          66.9090   41.9647   27.6143 H       336      M_A    0.0000
   5651 H          67.3924   39.5270   26.5914 H       336      M_A    0.0000
   5652 H          64.9849   39.3632   22.6814 H       336      M_A    0.0000
   5653 H          63.6491   39.3558   23.9090 H       336      M_A    0.0000
   5654 H          64.7525   37.8923   23.7184 H       336      M_A    0.0000
   5655 C          66.3170   39.4845   28.4993 C.3     337      M_A    0.0000
   5656 C          67.0686   38.1692   28.9014 C.3     337      M_A    0.0000
   5657 C          68.4606   38.0936   28.1962 C.2     337      M_A    0.0000
   5658 O          68.9065   37.1537   27.5004 O.2     337      M_A    0.0000
   5659 O          69.2164   39.2324   28.5239 O.3     337      M_A    0.0000
   5660 C          70.5437   39.2616   27.9095 C.3     337      M_A    0.0000
   5661 H          65.2337   39.3982   28.7787 H       337      M_A    0.0000
   5662 H          66.7174   40.3393   29.1060 H       337      M_A    0.0000
   5663 H          67.3015   38.2396   29.9993 H       337      M_A    0.0000
   5664 H          71.0380   40.2199   28.2026 H       337      M_A    0.0000
   5665 H          70.4606   39.2325   26.7945 H       337      M_A    0.0000
   5666 H          71.1655   38.4117   28.2861 H       337      M_A    0.0000
   5667 C          66.1536   36.8351   28.7712 C.3     338      M_A    0.0000
   5668 C          66.4473   35.6770   29.7857 C.3     338      M_A    0.0000
   5669 C          66.0966   36.1196   31.2424 C.2     338      M_A    0.0000
   5670 O          66.8411   36.0734   32.2473 O.2     338      M_A    0.0000
   5671 O          64.7503   36.5190   31.3013 O.3     338      M_A    0.0000
   5672 C          64.3182   36.9570   32.6285 C.3     338      M_A    0.0000
   5673 H          66.2502   36.4487   27.7221 H       338      M_A    0.0000
   5674 H          65.0837   37.1565   28.8766 H       338      M_A    0.0000
   5675 H          65.7315   34.8409   29.5547 H       338      M_A    0.0000
   5676 H          63.2531   37.2864   32.5527 H       338      M_A    0.0000
   5677 H          64.9334   37.8245   32.9750 H       338      M_A    0.0000
   5678 H          64.3768   36.1097   33.3561 H       338      M_A    0.0000
   5679 C          67.9151   35.0100   29.5996 C.3     339      M_A    0.0000
   5680 C          67.9911   33.4456   29.6574 C.3     339      M_A    0.0000
   5681 C          67.5215   32.8216   28.3043 C.2     339      M_A    0.0000
   5682 O          66.6415   31.9471   28.1391 O.2     339      M_A    0.0000
   5683 O          68.3049   33.3311   27.2544 O.3     339      M_A    0.0000
   5684 C          67.9434   32.8095   25.9363 C.3     339      M_A    0.0000
   5685 H          68.5966   35.4480   30.3761 H       339      M_A    0.0000
   5686 H          68.3161   35.3635   28.6130 H       339      M_A    0.0000
   5687 H          69.0770   33.1668   29.7456 H       339      M_A    0.0000
   5688 H          68.5971   33.3062   25.1782 H       339      M_A    0.0000
   5689 H          66.8777   33.0510   25.6976 H       339      M_A    0.0000
   5690 H          68.1228   31.7065   25.8917 H       339      M_A    0.0000
   5691 C          67.3063   32.8128   30.9858 C.3     340      M_A    0.0000
   5692 C          67.6281   31.3109   31.2976 C.3     340      M_A    0.0000
   5693 C          69.0840   31.1622   31.8445 C.2     340      M_A    0.0000
   5694 O          69.9814   30.4047   31.4119 O.2     340      M_A    0.0000
   5695 O          69.2410   31.9646   32.9879 O.3     340      M_A    0.0000
   5696 C          70.5770   31.8996   33.5802 C.3     340      M_A    0.0000
   5697 H          66.1957   32.9494   30.9026 H       340      M_A    0.0000
   5698 H          67.6236   33.4471   31.8553 H       340      M_A    0.0000
   5699 H          66.9635   30.9963   32.1485 H       340      M_A    0.0000
   5700 H          70.6021   32.5992   34.4512 H       340      M_A    0.0000
   5701 H          71.3503   32.2264   32.8411 H       340      M_A    0.0000
   5702 H          70.7891   30.8654   33.9493 H       340      M_A    0.0000
   5703 C          67.2364   30.3005   30.0893 C.3     341      M_A    0.0000
   5704 C          65.9860   29.3829   30.3150 C.3     341      M_A    0.0000
   5705 C          64.6664   30.2085   30.1817 C.2     341      M_A    0.0000
   5706 O          63.7309   30.2794   31.0101 O.2     341      M_A    0.0000
   5707 O          64.6236   30.8262   28.9199 O.3     341      M_A    0.0000
   5708 C          63.4229   31.6303   28.6926 C.3     341      M_A    0.0000
   5709 H          68.1330   29.6646   29.8639 H       341      M_A    0.0000
   5710 H          67.0740   30.9279   29.1733 H       341      M_A    0.0000
   5711 H          65.9553   28.6452   29.4667 H       341      M_A    0.0000
   5712 H          63.5106   32.1029   27.6838 H       341      M_A    0.0000
   5713 H          63.3433   32.4419   29.4582 H       341      M_A    0.0000
   5714 H          62.5122   30.9812   28.7024 H       341      M_A    0.0000
   5715 C          66.0926   28.4589   31.6451 C.3     342      M_A    0.0000
   5716 C          65.0845   27.2639   31.7561 C.3     342      M_A    0.0000
   5717 C          65.3278   26.2306   30.6098 C.2     342      M_A    0.0000
   5718 O          64.4837   25.7865   29.7995 O.2     342      M_A    0.0000
   5719 O          66.6584   25.7803   30.6572 O.3     342      M_A    0.0000
   5720 C          66.9929   24.8056   29.6189 C.3     342      M_A    0.0000
   5721 H          65.9844   29.1258   32.5409 H       342      M_A    0.0000
   5722 H          67.1416   28.0629   31.6892 H       342      M_A    0.0000
   5723 H          65.3262   26.7097   32.7043 H       342      M_A    0.0000
   5724 H          68.0751   24.5477   29.7243 H       342      M_A    0.0000
   5725 H          66.8306   25.2435   28.6026 H       342      M_A    0.0000
   5726 H          66.3910   23.8725   29.7527 H       342      M_A    0.0000
   5727 C          63.5428   27.7333   31.9489 C.3     343      M_A    0.0000
   5728 C          62.5149   26.6248   32.3627 C.3     343      M_A    0.0000
   5729 C          62.4364   25.5116   31.2694 C.2     343      M_A    0.0000
   5730 O          61.4090   25.0850   30.6960 O.2     343      M_A    0.0000
   5731 O          63.7153   24.9673   31.0598 O.3     343      M_A    0.0000
   5732 C          63.7530   23.9118   30.0476 C.3     343      M_A    0.0000
   5733 H          63.2063   28.2204   30.9957 H       343      M_A    0.0000
   5734 H          63.5393   28.5475   32.7209 H       343      M_A    0.0000
   5735 H          62.9269   26.1103   33.2737 H       343      M_A    0.0000
   5736 H          64.8143   23.5809   29.9344 H       343      M_A    0.0000
   5737 H          63.3962   24.3009   29.0615 H       343      M_A    0.0000
   5738 H          63.1411   23.0354   30.3764 H       343      M_A    0.0000
   5739 C          61.0849   27.2177   32.8504 C.3     344      M_A    0.0000
   5740 C          59.9336   26.1798   33.0826 C.3     344      M_A    0.0000
   5741 C          60.5216   24.7703   33.4115 C.2     344      M_A    0.0000
   5742 O          60.2595   23.6885   32.8394 O.2     344      M_A    0.0000
   5743 O          61.3597   24.8612   34.5363 O.3     344      M_A    0.0000
   5744 C          61.9667   23.5894   34.9290 C.3     344      M_A    0.0000
   5745 H          60.7534   27.9849   32.1017 H       344      M_A    0.0000
   5746 H          61.2690   27.7845   33.8012 H       344      M_A    0.0000
   5747 H          59.3853   26.4916   34.0136 H       344      M_A    0.0000
   5748 H          62.6379   23.7830   35.8013 H       344      M_A    0.0000
   5749 H          62.5830   23.1741   34.0932 H       344      M_A    0.0000
   5750 H          61.1773   22.8621   35.2431 H       344      M_A    0.0000
   5751 C          58.7981   26.2024   31.9231 C.3     345      M_A    0.0000
   5752 C          57.3784   25.6671   32.3162 C.3     345      M_A    0.0000
   5753 C          57.3239   24.1106   32.1930 C.2     345      M_A    0.0000
   5754 O          56.4924   23.4309   31.5504 O.2     345      M_A    0.0000
   5755 O          58.3243   23.5398   32.9986 O.3     345      M_A    0.0000
   5756 C          58.3612   22.0781   32.9534 C.3     345      M_A    0.0000
   5757 H          59.1875   25.6236   31.0443 H       345      M_A    0.0000
   5758 H          58.7082   27.2634   31.5692 H       345      M_A    0.0000
   5759 H          57.2330   25.8782   33.4111 H       345      M_A    0.0000
   5760 H          59.2108   21.7350   33.5931 H       345      M_A    0.0000
   5761 H          58.5388   21.7222   31.9080 H       345      M_A    0.0000
   5762 H          57.4125   21.6520   33.3647 H       345      M_A    0.0000
   5763 C          56.1632   26.4616   31.5906 C.3     346      M_A    0.0000
   5764 C          54.8144   26.5620   32.3825 C.3     346      M_A    0.0000
   5765 C          54.7687   25.5006   33.5281 C.2     346      M_A    0.0000
   5766 O          53.8722   24.6534   33.7395 O.2     346      M_A    0.0000
   5767 O          55.8732   25.6791   34.3789 O.3     346      M_A    0.0000
   5768 C          55.9267   24.7290   35.4899 C.3     346      M_A    0.0000
   5769 H          55.9788   25.9792   30.5945 H       346      M_A    0.0000
   5770 H          56.5348   27.4951   31.3607 H       346      M_A    0.0000
   5771 H          54.8078   27.5570   32.9066 H       346      M_A    0.0000
   5772 H          56.8567   24.9344   36.0743 H       346      M_A    0.0000
   5773 H          55.9738   23.6792   35.1067 H       346      M_A    0.0000
   5774 H          55.0456   24.8688   36.1643 H       346      M_A    0.0000
   5775 C          53.5038   26.6047   31.4261 C.3     347      M_A    0.0000
   5776 C          52.4634   27.7429   31.7063 C.3     347      M_A    0.0000
   5777 C          52.3772   28.0450   33.2367 C.2     347      M_A    0.0000
   5778 O          51.3475   28.0635   33.9477 O.2     347      M_A    0.0000
   5779 O          53.6512   28.3893   33.7205 O.3     347      M_A    0.0000
   5780 C          53.6816   28.6905   35.1517 C.3     347      M_A    0.0000
   5781 H          52.9948   25.6067   31.4898 H       347      M_A    0.0000
   5782 H          53.8691   26.6897   30.3686 H       347      M_A    0.0000
   5783 H          52.8672   28.6858   31.2453 H       347      M_A    0.0000
   5784 H          54.7399   28.9107   35.4350 H       347      M_A    0.0000
   5785 H          53.3319   27.8096   35.7457 H       347      M_A    0.0000
   5786 H          53.0598   29.5935   35.3726 H       347      M_A    0.0000
   5787 C          51.0379   27.5138   30.9649 C.3     348      M_A    0.0000
   5788 C          49.7548   27.9433   31.7560 C.3     348      M_A    0.0000
   5789 C          50.0518   29.1880   32.6521 C.2     348      M_A    0.0000
   5790 O          49.8412   29.3040   33.8803 O.2     348      M_A    0.0000
   5791 O          50.5327   30.2392   31.8525 O.3     348      M_A    0.0000
   5792 C          50.8455   31.4580   32.5987 C.3     348      M_A    0.0000
   5793 H          50.9617   26.4296   30.6861 H       348      M_A    0.0000
   5794 H          51.0773   28.0728   29.9928 H       348      M_A    0.0000
   5795 H          49.0010   28.3003   31.0016 H       348      M_A    0.0000
   5796 H          51.2531   32.2082   31.8777 H       348      M_A    0.0000
   5797 H          51.6241   31.2537   33.3752 H       348      M_A    0.0000
   5798 H          49.9190   31.8786   33.0628 H       348      M_A    0.0000
   5799 C          49.0148   26.7100   32.5081 C.3     349      M_A    0.0000
   5800 C          47.6476   26.2354   31.9063 C.3     349      M_A    0.0000
   5801 C          47.0205   27.3550   31.0153 C.2     349      M_A    0.0000
   5802 O          45.8691   27.8373   31.1045 O.2     349      M_A    0.0000
   5803 O          47.9265   27.7121   30.0016 O.3     349      M_A    0.0000
   5804 C          47.4349   28.7607   29.1079 C.3     349      M_A    0.0000
   5805 H          48.8729   26.9944   33.5842 H       349      M_A    0.0000
   5806 H          49.7340   25.8486   32.5164 H       349      M_A    0.0000
   5807 H          47.8694   25.3898   31.1989 H       349      M_A    0.0000
   5808 H          48.2428   28.9922   28.3714 H       349      M_A    0.0000
   5809 H          47.2039   29.6910   29.6843 H       349      M_A    0.0000
   5810 H          46.5352   28.4041   28.5476 H       349      M_A    0.0000
   5811 C          46.6471   25.5849   33.0063 C.3     350      M_A    0.0000
   5812 C          46.5180   24.0229   33.0054 C.3     350      M_A    0.0000
   5813 C          47.8453   23.3615   32.5138 C.2     350      M_A    0.0000
   5814 O          47.9779   22.5241   31.5932 O.2     350      M_A    0.0000
   5815 O          48.9107   23.7839   33.3274 O.3     350      M_A    0.0000
   5816 C          50.2067   23.2210   32.9486 C.3     350      M_A    0.0000
   5817 H          45.6332   26.0455   32.8688 H       350      M_A    0.0000
   5818 H          46.9987   25.9263   34.0157 H       350      M_A    0.0000
   5819 H          46.4084   23.6960   34.0758 H       350      M_A    0.0000
   5820 H          50.9812   23.6503   33.6303 H       350      M_A    0.0000
   5821 H          50.4648   23.5028   31.8974 H       350      M_A    0.0000
   5822 H          50.2000   22.1098   33.0742 H       350      M_A    0.0000
   5823 C          45.1679   23.4853   32.2826 C.3     351      M_A    0.0000
   5824 C          44.2398   22.5485   33.1298 C.3     351      M_A    0.0000
   5825 C          44.7404   21.0702   33.0614 C.2     351      M_A    0.0000
   5826 O          44.0752   20.0600   32.7402 O.2     351      M_A    0.0000
   5827 O          46.0725   21.0037   33.5051 O.3     351      M_A    0.0000
   5828 C          46.6409   19.6561   33.4784 C.3     351      M_A    0.0000
   5829 H          45.4657   22.9620   31.3357 H       351      M_A    0.0000
   5830 H          44.5852   24.3875   31.9578 H       351      M_A    0.0000
   5831 H          44.3582   22.8468   34.2076 H       351      M_A    0.0000
   5832 H          47.7056   19.7247   33.8105 H       351      M_A    0.0000
   5833 H          46.6199   19.2418   32.4396 H       351      M_A    0.0000
   5834 H          46.0906   18.9876   34.1863 H       351      M_A    0.0000
   5835 C          42.6590   22.7584   32.8279 C.3     352      M_A    0.0000
   5836 C          41.9170   21.5820   32.1055 C.3     352      M_A    0.0000
   5837 C          42.9442   20.5658   31.5116 C.2     352      M_A    0.0000
   5838 O          43.0055   20.1539   30.3314 O.2     352      M_A    0.0000
   5839 O          43.7794   20.0881   32.5363 O.3     352      M_A    0.0000
   5840 C          44.7846   19.1266   32.0835 C.3     352      M_A    0.0000
   5841 H          42.5419   23.7002   32.2291 H       352      M_A    0.0000
   5842 H          42.1589   22.9625   33.8114 H       352      M_A    0.0000
   5843 H          41.3585   21.0054   32.8931 H       352      M_A    0.0000
   5844 H          45.4131   18.8452   32.9636 H       352      M_A    0.0000
   5845 H          45.4467   19.5867   31.3082 H       352      M_A    0.0000
   5846 H          44.2908   18.2034   31.6904 H       352      M_A    0.0000
   5847 C          40.7621   22.0783   31.0788 C.3     353      M_A    0.0000
   5848 C          39.3537   22.3826   31.6956 C.3     353      M_A    0.0000
   5849 C          39.1296   21.5449   32.9951 C.2     353      M_A    0.0000
   5850 O          38.1631   20.7928   33.2535 O.2     353      M_A    0.0000
   5851 O          40.1576   21.8180   33.9139 O.3     353      M_A    0.0000
   5852 C          40.0426   21.0787   35.1709 C.3     353      M_A    0.0000
   5853 H          40.6595   21.3056   30.2717 H       353      M_A    0.0000
   5854 H          41.1484   22.9992   30.5670 H       353      M_A    0.0000
   5855 H          39.3629   23.4540   32.0373 H       353      M_A    0.0000
   5856 H          40.9245   21.3394   35.8058 H       353      M_A    0.0000
   5857 H          40.0567   19.9765   34.9807 H       353      M_A    0.0000
   5858 H          39.1126   21.3784   35.7149 H       353      M_A    0.0000
   5859 C          38.1455   22.3181   30.6137 C.3     354      M_A    0.0000
   5860 C          37.7641   23.6614   29.9019 C.3     354      M_A    0.0000
   5861 C          38.8305   24.0341   28.8226 C.2     354      M_A    0.0000
   5862 O          39.4521   25.1149   28.7145 O.2     354      M_A    0.0000
   5863 O          38.9498   22.9832   27.8968 O.3     354      M_A    0.0000
   5864 C          39.9299   23.2315   26.8396 C.3     354      M_A    0.0000
   5865 H          37.2418   21.8955   31.1272 H       354      M_A    0.0000
   5866 H          38.4350   21.5588   29.8399 H       354      M_A    0.0000
   5867 H          36.8171   23.4763   29.3243 H       354      M_A    0.0000
   5868 H          39.9716   22.3242   26.1886 H       354      M_A    0.0000
   5869 H          40.9453   23.4001   27.2775 H       354      M_A    0.0000
   5870 H          39.6149   24.1033   26.2139 H       354      M_A    0.0000
   5871 C          37.3774   24.8535   30.9331 C.3     355      M_A    0.0000
   5872 C          37.1114   26.2665   30.3095 C.3     355      M_A    0.0000
   5873 C          36.1542   26.1538   29.0798 C.2     355      M_A    0.0000
   5874 O          36.3502   26.5952   27.9252 O.2     355      M_A    0.0000
   5875 O          34.9542   25.5367   29.4730 O.3     355      M_A    0.0000
   5876 C          33.9841   25.3798   28.3893 C.3     355      M_A    0.0000
   5877 H          38.1941   24.9288   31.6989 H       355      M_A    0.0000
   5878 H          36.4659   24.5204   31.4965 H       355      M_A    0.0000
   5879 H          36.5393   26.8654   31.0703 H       355      M_A    0.0000
   5880 H          33.0917   24.8475   28.8003 H       355      M_A    0.0000
   5881 H          34.4156   24.7619   27.5628 H       355      M_A    0.0000
   5882 H          33.6577   26.3805   28.0114 H       355      M_A    0.0000
   5883 C          38.4637   27.1278   30.0570 C.3     356      M_A    0.0000
   5884 C          38.2944   28.5131   29.3438 C.3     356      M_A    0.0000
   5885 C          39.5652   28.8580   28.5030 C.2     356      M_A    0.0000
   5886 O          40.2501   29.9039   28.5609 O.2     356      M_A    0.0000
   5887 O          39.8062   27.8323   27.5726 O.3     356      M_A    0.0000
   5888 C          40.9820   28.0573   26.7319 C.3     356      M_A    0.0000
   5889 H          39.1780   26.4895   29.4727 H       356      M_A    0.0000
   5890 H          38.9478   27.2836   31.0572 H       356      M_A    0.0000
   5891 H          37.4674   28.4021   28.5899 H       356      M_A    0.0000
   5892 H          41.1014   27.1706   26.0624 H       356      M_A    0.0000
   5893 H          41.9019   28.1525   27.3610 H       356      M_A    0.0000
   5894 H          40.8373   28.9656   26.0956 H       356      M_A    0.0000
   5895 C          37.7784   29.6918   30.3330 C.3     357      M_A    0.0000
   5896 C          38.3284   31.1336   30.0588 C.3     357      M_A    0.0000
   5897 C          38.5494   31.9026   31.4006 C.2     357      M_A    0.0000
   5898 O          38.1001   33.0288   31.7104 O.2     357      M_A    0.0000
   5899 O          39.4242   31.1717   32.2230 O.3     357      M_A    0.0000
   5900 C          39.6973   31.8068   33.5122 C.3     357      M_A    0.0000
   5901 H          38.0205   29.3917   31.3867 H       357      M_A    0.0000
   5902 H          36.6579   29.7061   30.2737 H       357      M_A    0.0000
   5903 H          39.3555   31.0206   29.6149 H       357      M_A    0.0000
   5904 H          40.3659   31.1278   34.0958 H       357      M_A    0.0000
   5905 H          38.7489   31.9503   34.0876 H       357      M_A    0.0000
   5906 H          40.2248   32.7814   33.3619 H       357      M_A    0.0000
   5907 C          37.4906   31.9420   28.9279 C.3     358      M_A    0.0000
   5908 C          38.3117   32.8814   27.9793 C.3     358      M_A    0.0000
   5909 C          39.6246   33.3582   28.6789 C.2     358      M_A    0.0000
   5910 O          40.0189   34.5369   28.8258 O.2     358      M_A    0.0000
   5911 O          40.3823   32.2405   29.0690 O.3     358      M_A    0.0000
   5912 C          41.6377   32.5785   29.7395 C.3     358      M_A    0.0000
   5913 H          36.6922   32.5364   29.4459 H       358      M_A    0.0000
   5914 H          36.9459   31.1788   28.3115 H       358      M_A    0.0000
   5915 H          38.6551   32.2590   27.1079 H       358      M_A    0.0000
   5916 H          42.1362   31.6242   30.0388 H       358      M_A    0.0000
   5917 H          41.4405   33.1795   30.6620 H       358      M_A    0.0000
   5918 H          42.3157   33.1294   29.0412 H       358      M_A    0.0000
   5919 C          37.4209   34.0581   27.3040 C.3     359      M_A    0.0000
   5920 C          36.1989   33.6057   26.4330 C.3     359      M_A    0.0000
   5921 C          36.6833   33.0140   25.0707 C.2     359      M_A    0.0000
   5922 O          36.3169   33.3561   23.9239 O.2     359      M_A    0.0000
   5923 O          37.5629   31.9438   25.3089 O.3     359      M_A    0.0000
   5924 C          38.0793   31.3173   24.0920 C.3     359      M_A    0.0000
   5925 H          38.1039   34.7005   26.6876 H       359      M_A    0.0000
   5926 H          37.0578   34.7169   28.1366 H       359      M_A    0.0000
   5927 H          35.7085   32.7456   26.9665 H       359      M_A    0.0000
   5928 H          38.7924   30.5121   24.3951 H       359      M_A    0.0000
   5929 H          38.6324   32.0646   23.4702 H       359      M_A    0.0000
   5930 H          37.2453   30.8522   23.5098 H       359      M_A    0.0000
   5931 C          35.0309   34.7273   26.3241 C.3     360      M_A    0.0000
   5932 C          33.5516   34.2138   26.3933 C.3     360      M_A    0.0000
   5933 C          32.9790   34.3791   27.8374 C.2     360      M_A    0.0000
   5934 O          32.4454   33.4959   28.5457 O.2     360      M_A    0.0000
   5935 O          33.0690   35.7264   28.2277 O.3     360      M_A    0.0000
   5936 C          32.5588   35.9904   29.5731 C.3     360      M_A    0.0000
   5937 H          35.1858   35.2985   25.3708 H       360      M_A    0.0000
   5938 H          35.2046   35.4667   27.1500 H       360      M_A    0.0000
   5939 H          32.9300   34.8982   25.7530 H       360      M_A    0.0000
   5940 H          32.7140   37.0749   29.7936 H       360      M_A    0.0000
   5941 H          33.1219   35.3907   30.3310 H       360      M_A    0.0000
   5942 H          31.4633   35.7711   29.6237 H       360      M_A    0.0000
   5943 C          33.3438   32.7471   25.7302 C.3     361      M_A    0.0000
   5944 C          31.9068   32.1283   25.8237 C.3     361      M_A    0.0000
   5945 C          30.8874   32.9774   24.9988 C.2     361      M_A    0.0000
   5946 O          29.8059   33.4622   25.4009 O.2     361      M_A    0.0000
   5947 O          31.3187   33.0636   23.6638 O.3     361      M_A    0.0000
   5948 C          30.4309   33.8439   22.8019 C.3     361      M_A    0.0000
   5949 H          34.0854   32.0465   26.1973 H       361      M_A    0.0000
   5950 H          33.6425   32.8267   24.6515 H       361      M_A    0.0000
   5951 H          31.9389   31.1294   25.3081 H       361      M_A    0.0000
   5952 H          30.8855   33.8801   21.7818 H       361      M_A    0.0000
   5953 H          30.3338   34.8908   23.1837 H       361      M_A    0.0000
   5954 H          29.4296   33.3515   22.7271 H       361      M_A    0.0000
   5955 C          31.4493   31.7806   27.3416 C.3     362      M_A    0.0000
   5956 C          30.1909   30.8606   27.5054 C.3     362      M_A    0.0000
   5957 C          28.9873   31.4233   26.6835 C.2     362      M_A    0.0000
   5958 O          27.8344   31.6709   27.1027 O.2     362      M_A    0.0000
   5959 O          29.3564   31.5455   25.3327 O.3     362      M_A    0.0000
   5960 C          28.2955   32.0691   24.4722 C.3     362      M_A    0.0000
   5961 H          31.2799   32.7483   27.8836 H       362      M_A    0.0000
   5962 H          32.3270   31.3003   27.8496 H       362      M_A    0.0000
   5963 H          30.4346   29.8727   27.0264 H       362      M_A    0.0000
   5964 H          28.7060   32.1616   23.4370 H       362      M_A    0.0000
   5965 H          27.9746   33.0833   24.8179 H       362      M_A    0.0000
   5966 H          27.4292   31.3622   24.4488 H       362      M_A    0.0000
   5967 C          29.8595   30.4858   29.0493 C.3     363      M_A    0.0000
   5968 C          28.3796   30.0862   29.3758 C.3     363      M_A    0.0000
   5969 C          27.4204   31.2992   29.1531 C.2     363      M_A    0.0000
   5970 O          26.5993   31.7746   29.9692 O.2     363      M_A    0.0000
   5971 O          27.5436   31.7596   27.8308 O.3     363      M_A    0.0000
   5972 C          26.6849   32.9015   27.5170 C.3     363      M_A    0.0000
   5973 H          30.1641   31.3547   29.6907 H       363      M_A    0.0000
   5974 H          30.5423   29.6437   29.3389 H       363      M_A    0.0000
   5975 H          28.0641   29.3214   28.6142 H       363      M_A    0.0000
   5976 H          26.8906   33.2076   26.4621 H       363      M_A    0.0000
   5977 H          26.9192   33.7649   28.1883 H       363      M_A    0.0000
   5978 H          25.6076   32.6124   27.5991 H       363      M_A    0.0000
   5979 C          28.2135   29.3252   30.7997 C.3     364      M_A    0.0000
   5980 C          26.7629   29.2362   31.3866 C.3     364      M_A    0.0000
   5981 C          25.7216   28.9999   30.2462 C.2     364      M_A    0.0000
   5982 O          24.6937   29.6730   30.0085 O.2     364      M_A    0.0000
   5983 O          26.0567   27.8331   29.5377 O.3     364      M_A    0.0000
   5984 C          25.1409   27.5207   28.4406 C.3     364      M_A    0.0000
   5985 H          28.8889   29.8265   31.5423 H       364      M_A    0.0000
   5986 H          28.6243   28.2890   30.6705 H       364      M_A    0.0000
   5987 H          26.7155   28.3091   32.0214 H       364      M_A    0.0000
   5988 H          25.5203   26.6045   27.9255 H       364      M_A    0.0000
   5989 H          25.1156   28.3585   27.7000 H       364      M_A    0.0000
   5990 H          24.1173   27.3069   28.8371 H       364      M_A    0.0000
   5991 C          26.4044   30.4420   32.4120 C.3     365      M_A    0.0000
   5992 C          24.9454   30.4708   32.9840 C.3     365      M_A    0.0000
   5993 C          24.4571   29.0249   33.3184 C.2     365      M_A    0.0000
   5994 O          23.4063   28.4709   32.9243 O.2     365      M_A    0.0000
   5995 O          25.3479   28.4257   34.2256 O.3     365      M_A    0.0000
   5996 C          24.9814   27.0611   34.6044 C.3     365      M_A    0.0000
   5997 H          26.6245   31.4138   31.8960 H       365      M_A    0.0000
   5998 H          27.1338   30.3806   33.2625 H       365      M_A    0.0000
   5999 H          24.9852   31.0015   33.9746 H       365      M_A    0.0000
   6000 H          25.7715   26.6703   35.2913 H       365      M_A    0.0000
   6001 H          24.9385   26.4014   33.7022 H       365      M_A    0.0000
   6002 H          24.0044   27.0575   35.1487 H       365      M_A    0.0000
   6003 C          23.9188   31.3595   32.0949 C.3     366      M_A    0.0000
   6004 C          22.4111   31.3331   32.5222 C.3     366      M_A    0.0000
   6005 C          22.2748   30.9743   34.0366 C.2     366      M_A    0.0000
   6006 O          21.5765   30.0654   34.5392 O.2     366      M_A    0.0000
   6007 O          23.0060   31.8958   34.8059 O.3     366      M_A    0.0000
   6008 C          22.9462   31.6468   36.2462 C.3     366      M_A    0.0000
   6009 H          24.0119   31.0316   31.0258 H       366      M_A    0.0000
   6010 H          24.2915   32.4176   32.1190 H       366      M_A    0.0000
   6011 H          22.0206   32.3841   32.4353 H       366      M_A    0.0000
   6012 H          23.5883   32.4074   36.7542 H       366      M_A    0.0000
   6013 H          23.3453   30.6297   36.4856 H       366      M_A    0.0000
   6014 H          21.8977   31.7623   36.6178 H       366      M_A    0.0000
   6015 C          21.4691   30.4720   31.5196 C.3     367      M_A    0.0000
   6016 C          19.9310   30.7698   31.5677 C.3     367      M_A    0.0000
   6017 C          19.5378   31.8116   30.4719 C.2     367      M_A    0.0000
   6018 O          18.9104   32.8820   30.6357 O.2     367      M_A    0.0000
   6019 O          19.9246   31.3334   29.2080 O.3     367      M_A    0.0000
   6020 C          19.6025   32.2399   28.1060 C.3     367      M_A    0.0000
   6021 H          21.6473   29.3833   31.7249 H       367      M_A    0.0000
   6022 H          21.8473   30.6480   30.4780 H       367      M_A    0.0000
   6023 H          19.3981   29.8237   31.2752 H       367      M_A    0.0000
   6024 H          19.9859   31.7830   27.1610 H       367      M_A    0.0000
   6025 H          20.1057   33.2283   28.2510 H       367      M_A    0.0000
   6026 H          18.4948   32.3648   28.0160 H       367      M_A    0.0000
   6027 C          19.3807   31.0939   33.0598 C.3     368      M_A    0.0000
   6028 C          18.0574   30.3755   33.4947 C.3     368      M_A    0.0000
   6029 C          18.1133   28.8558   33.1369 C.2     368      M_A    0.0000
   6030 O          17.2748   28.2024   32.4763 O.2     368      M_A    0.0000
   6031 O          19.2353   28.2697   33.7479 O.3     368      M_A    0.0000
   6032 C          19.3826   26.8405   33.4729 C.3     368      M_A    0.0000
   6033 H          19.2514   32.2050   33.1485 H       368      M_A    0.0000
   6034 H          20.1996   30.8276   33.7792 H       368      M_A    0.0000
   6035 H          18.0124   30.4091   34.6179 H       368      M_A    0.0000
   6036 H          20.3196   26.4889   33.9700 H       368      M_A    0.0000
   6037 H          19.4761   26.6601   32.3729 H       368      M_A    0.0000
   6038 H          18.5195   26.2712   33.8991 H       368      M_A    0.0000
   6039 C          16.7133   31.1498   33.0172 C.3     369      M_A    0.0000
   6040 C          15.6606   31.4858   34.1287 C.3     369      M_A    0.0000
   6041 C          15.0173   30.1777   34.6906 C.2     369      M_A    0.0000
   6042 O          13.7976   29.9113   34.7781 O.2     369      M_A    0.0000
   6043 O          16.0257   29.3318   35.1835 O.3     369      M_A    0.0000
   6044 C          15.5274   28.0712   35.7334 C.3     369      M_A    0.0000
   6045 H          16.2271   30.5374   32.2124 H       369      M_A    0.0000
   6046 H          17.0392   32.1000   32.5172 H       369      M_A    0.0000
   6047 H          16.2210   31.9310   34.9961 H       369      M_A    0.0000
   6048 H          16.4081   27.4645   36.0573 H       369      M_A    0.0000
   6049 H          14.9689   27.4962   34.9532 H       369      M_A    0.0000
   6050 H          14.8818   28.2642   36.6260 H       369      M_A    0.0000
   6051 C          14.6088   32.6434   33.6954 C.3     370      M_A    0.0000
   6052 C          14.5863   33.9406   34.5748 C.3     370      M_A    0.0000
   6053 C          14.4005   33.5794   36.0834 C.2     370      M_A    0.0000
   6054 O          13.5349   34.0282   36.8681 O.2     370      M_A    0.0000
   6055 O          15.4262   32.7077   36.4880 O.3     370      M_A    0.0000
   6056 C          15.3432   32.3038   37.8916 C.3     370      M_A    0.0000
   6057 H          13.5831   32.1890   33.6703 H       370      M_A    0.0000
   6058 H          14.8415   32.9208   32.6333 H       370      M_A    0.0000
   6059 H          15.6080   34.4060   34.5101 H       370      M_A    0.0000
   6060 H          16.1763   31.5869   38.0935 H       370      M_A    0.0000
   6061 H          14.3730   31.7854   38.0940 H       370      M_A    0.0000
   6062 H          15.4690   33.1916   38.5600 H       370      M_A    0.0000
   6063 C          13.5873   35.0884   34.0101 C.3     371      M_A    0.0000
   6064 C          14.0967   36.5684   34.0908 C.3     371      M_A    0.0000
   6065 C          14.7393   37.0038   32.7350 C.2     371      M_A    0.0000
   6066 O          15.8772   37.4945   32.5597 O.2     371      M_A    0.0000
   6067 O          13.8039   36.8431   31.6982 O.3     371      M_A    0.0000
   6068 C          14.3088   37.2226   30.3787 C.3     371      M_A    0.0000
   6069 H          12.6105   34.9973   34.5547 H       371      M_A    0.0000
   6070 H          13.3612   34.8330   32.9411 H       371      M_A    0.0000
   6071 H          13.1929   37.2269   34.2099 H       371      M_A    0.0000
   6072 H          13.5041   37.0194   29.6305 H       371      M_A    0.0000
   6073 H          15.2050   36.6095   30.1102 H       371      M_A    0.0000
   6074 H          14.5495   38.3145   30.3534 H       371      M_A    0.0000
   6075 C          14.9911   36.8742   35.4102 C.3     372      M_A    0.0000
   6076 C          15.9644   38.1003   35.3335 C.2     372      M_A    0.0000
   6077 C          15.1806   39.4033   34.9749 C.2     372      M_A    0.0000
   6078 O          15.4271   40.2029   34.0442 O.2     372      M_A    0.0000
   6079 O          14.1654   39.6175   35.9232 O.3     372      M_A    0.0000
   6080 C          13.3661   40.8176   35.6767 C.3     372      M_A    0.0000
   6081 H          15.5734   35.9475   35.6574 H       372      M_A    0.0000
   6082 H          14.2795   37.0200   36.2654 H       372      M_A    0.0000
   6083 H          16.3631   38.2759   36.3703 H       372      M_A    0.0000
   6084 H          12.5710   40.8688   36.4603 H       372      M_A    0.0000
   6085 H          12.8725   40.7614   34.6746 H       372      M_A    0.0000
   6086 H          14.0034   41.7330   35.7574 H       372      M_A    0.0000
@<TRIPOS>BOND
     1     1     2      1
     2     1    11      1
     3     2     3      2
     4     2     4      1
     5     4     5      1
     6     4    12      1
     7     4    13      1
     8     5     6      1
     9     5    14      1
    10     5    15      1
    11     6     7      1
    12     6     8      1
    13     6    10      1
    14     7    16      1
    15     7    17      1
    16     7    18      1
    17     8     9      3
    18    10    19      1
    19    10    20      1
    20    21    22      1
    21    21    23      1
    22    22    32      1
    23    23    24      1
    24    23   103      1
    25    23   104      1
    26    24    25      1
    27    24   105      1
    28    24   106      1
    29    25    26      1
    30    26    27      2
    31    26    28      1
    32    28    29      1
    33    28    30      1
    34    29   107      1
    35    29   108      1
    36    29   109      1
    37    30    31      1
    38    30   110      1
    39    30   111      1
    40    31   112      1
    41    31   113      1
    42    32    33      1
    43    32   114      1
    44    32   115      1
    45    33    34      1
    46    33   116      1
    47    33   117      1
    48    34    35      1
    49    35    36      1
    50    35    37      2
    51    36    38      1
    52    36    39      1
    53    36    40      1
    54    38    42      1
    55    38   118      1
    56    38   119      1
    57    39   120      1
    58    39   121      1
    59    39   122      1
    60    40    41      1
    61    40   123      1
    62    40   124      1
    63    41    43      1
    64    42    73      1
    65    43    44      1
    66    43    45      2
    67    44    46      1
    68    44    47      1
    69    44    48      1
    70    46    50      1
    71    46   125      1
    72    46   126      1
    73    47    49      1
    74    47   127      1
    75    47   128      1
    76    48   129      1
    77    48   130      1
    78    48   131      1
    79    49    51      1
    80    50    62      1
    81    51    52      1
    82    51    53      2
    83    52    54      1
    84    52    58      1
    85    52    59      1
    86    54    55      1
    87    54   132      1
    88    54   133      1
    89    55    56      1
    90    56    57      1
    91    56    60      1
    92    56    61      1
    93    57    58      1
    94    58   134      1
    95    58   135      1
    96    59   136      1
    97    59   137      1
    98    59   138      1
    99    60   139      1
   100    60   140      1
   101    60   141      1
   102    61   142      1
   103    61   143      1
   104    61   144      1
   105    62    63      1
   106    62    64      2
   107    63    65      1
   108    63    69      1
   109    63    70      1
   110    65    66      1
   111    65   145      1
   112    65   146      1
   113    66    67      1
   114    67    68      1
   115    67    71      1
   116    67    72      1
   117    68    69      1
   118    69   147      1
   119    69   148      1
   120    70   149      1
   121    70   150      1
   122    70   151      1
   123    71   152      1
   124    71   153      1
   125    71   154      1
   126    72   155      1
   127    72   156      1
   128    72   157      1
   129    73    74      1
   130    73    75      2
   131    74    76      1
   132    74    77      1
   133    74    78      1
   134    76    80      1
   135    76   158      1
   136    76   159      1
   137    77    79      1
   138    77   160      1
   139    77   161      1
   140    78   162      1
   141    78   163      1
   142    78   164      1
   143    79    81      1
   144    80    84      1
   145    81    82      2
   146    81    83      1
   147    82   165      1
   148    82   166      1
   149    83    87      1
   150    83    91      1
   151    83    98      1
   152    84    85      1
   153    84    86      2
   154    85    92      1
   155    85    96      1
   156    85    97      1
   157    87    88      1
   158    87   167      1
   159    87   168      1
   160    88    89      1
   161    89    90      1
   162    89   101      1
   163    89   102      1
   164    90    91      1
   165    91   169      1
   166    91   170      1
   167    92    93      1
   168    92   171      1
   169    92   172      1
   170    93    94      1
   171    94    95      1
   172    94    99      1
   173    94   100      1
   174    95    96      1
   175    96   173      1
   176    96   174      1
   177    97   175      1
   178    97   176      1
   179    97   177      1
   180    98   178      1
   181    98   179      1
   182    98   180      1
   183    99   181      1
   184    99   182      1
   185    99   183      1
   186   100   184      1
   187   100   185      1
   188   100   186      1
   189   101   187      1
   190   101   188      1
   191   101   189      1
   192   102   190      1
   193   102   191      1
   194   102   192      1
   195   193   194      1
   196   193   195      1
   197   194   204      1
   198   195   196      1
   199   195   275      1
   200   195   276      1
   201   196   197      1
   202   196   277      1
   203   196   278      1
   204   197   198      1
   205   198   199      2
   206   198   200      1
   207   200   201      1
   208   200   202      1
   209   201   279      1
   210   201   280      1
   211   201   281      1
   212   202   203      1
   213   202   282      1
   214   202   283      1
   215   203   284      1
   216   203   285      1
   217   204   205      1
   218   204   286      1
   219   204   287      1
   220   205   206      1
   221   205   288      1
   222   205   289      1
   223   206   207      1
   224   207   208      1
   225   207   209      2
   226   208   210      1
   227   208   211      1
   228   208   212      1
   229   210   214      1
   230   210   290      1
   231   210   291      1
   232   211   292      1
   233   211   293      1
   234   211   294      1
   235   212   213      1
   236   212   295      1
   237   212   296      1
   238   213   215      1
   239   214   245      1
   240   215   216      1
   241   215   217      2
   242   216   218      1
   243   216   219      1
   244   216   220      1
   245   218   222      1
   246   218   297      1
   247   218   298      1
   248   219   221      1
   249   219   299      1
   250   219   300      1
   251   220   301      1
   252   220   302      1
   253   220   303      1
   254   221   223      1
   255   222   234      1
   256   223   224      1
   257   223   225      2
   258   224   226      1
   259   224   230      1
   260   224   231      1
   261   226   227      1
   262   226   304      1
   263   226   305      1
   264   227   228      1
   265   228   229      1
   266   228   232      1
   267   228   233      1
   268   229   230      1
   269   230   306      1
   270   230   307      1
   271   231   308      1
   272   231   309      1
   273   231   310      1
   274   232   311      1
   275   232   312      1
   276   232   313      1
   277   233   314      1
   278   233   315      1
   279   233   316      1
   280   234   235      1
   281   234   236      2
   282   235   237      1
   283   235   241      1
   284   235   242      1
   285   237   238      1
   286   237   317      1
   287   237   318      1
   288   238   239      1
   289   239   240      1
   290   239   243      1
   291   239   244      1
   292   240   241      1
   293   241   319      1
   294   241   320      1
   295   242   321      1
   296   242   322      1
   297   242   323      1
   298   243   324      1
   299   243   325      1
   300   243   326      1
   301   244   327      1
   302   244   328      1
   303   244   329      1
   304   245   246      1
   305   245   247      2
   306   246   248      1
   307   246   249      1
   308   246   250      1
   309   248   252      1
   310   248   330      1
   311   248   331      1
   312   249   251      1
   313   249   332      1
   314   249   333      1
   315   250   334      1
   316   250   335      1
   317   250   336      1
   318   251   253      1
   319   252   256      1
   320   253   254      2
   321   253   255      1
   322   254   337      1
   323   254   338      1
   324   255   259      1
   325   255   263      1
   326   255   270      1
   327   256   257      1
   328   256   258      2
   329   257   264      1
   330   257   268      1
   331   257   269      1
   332   259   260      1
   333   259   339      1
   334   259   340      1
   335   260   261      1
   336   261   262      1
   337   261   273      1
   338   261   274      1
   339   262   263      1
   340   263   341      1
   341   263   342      1
   342   264   265      1
   343   264   343      1
   344   264   344      1
   345   265   266      1
   346   266   267      1
   347   266   271      1
   348   266   272      1
   349   267   268      1
   350   268   345      1
   351   268   346      1
   352   269   347      1
   353   269   348      1
   354   269   349      1
   355   270   350      1
   356   270   351      1
   357   270   352      1
   358   271   353      1
   359   271   354      1
   360   271   355      1
   361   272   356      1
   362   272   357      1
   363   272   358      1
   364   273   359      1
   365   273   360      1
   366   273   361      1
   367   274   362      1
   368   274   363      1
   369   274   364      1
   370   365   366      1
   371   365   367      1
   372   366   376      1
   373   367   368      1
   374   367   447      1
   375   367   448      1
   376   368   369      1
   377   368   449      1
   378   368   450      1
   379   369   370      1
   380   370   371      2
   381   370   372      1
   382   372   373      1
   383   372   374      1
   384   373   451      1
   385   373   452      1
   386   373   453      1
   387   374   375      1
   388   374   454      1
   389   374   455      1
   390   375   456      1
   391   375   457      1
   392   376   377      1
   393   376   458      1
   394   376   459      1
   395   377   378      1
   396   377   460      1
   397   377   461      1
   398   378   379      1
   399   379   380      1
   400   379   381      2
   401   380   382      1
   402   380   383      1
   403   380   384      1
   404   382   386      1
   405   382   462      1
   406   382   463      1
   407   383   464      1
   408   383   465      1
   409   383   466      1
   410   384   385      1
   411   384   467      1
   412   384   468      1
   413   385   387      1
   414   386   417      1
   415   387   388      1
   416   387   389      2
   417   388   390      1
   418   388   391      1
   419   388   392      1
   420   390   394      1
   421   390   469      1
   422   390   470      1
   423   391   393      1
   424   391   471      1
   425   391   472      1
   426   392   473      1
   427   392   474      1
   428   392   475      1
   429   393   395      1
   430   394   406      1
   431   395   396      1
   432   395   397      2
   433   396   398      1
   434   396   402      1
   435   396   403      1
   436   398   399      1
   437   398   476      1
   438   398   477      1
   439   399   400      1
   440   400   401      1
   441   400   404      1
   442   400   405      1
   443   401   402      1
   444   402   478      1
   445   402   479      1
   446   403   480      1
   447   403   481      1
   448   403   482      1
   449   404   483      1
   450   404   484      1
   451   404   485      1
   452   405   486      1
   453   405   487      1
   454   405   488      1
   455   406   407      1
   456   406   408      2
   457   407   409      1
   458   407   413      1
   459   407   414      1
   460   409   410      1
   461   409   489      1
   462   409   490      1
   463   410   411      1
   464   411   412      1
   465   411   415      1
   466   411   416      1
   467   412   413      1
   468   413   491      1
   469   413   492      1
   470   414   493      1
   471   414   494      1
   472   414   495      1
   473   415   496      1
   474   415   497      1
   475   415   498      1
   476   416   499      1
   477   416   500      1
   478   416   501      1
   479   417   418      1
   480   417   419      2
   481   418   420      1
   482   418   421      1
   483   418   422      1
   484   420   424      1
   485   420   502      1
   486   420   503      1
   487   421   423      1
   488   421   504      1
   489   421   505      1
   490   422   506      1
   491   422   507      1
   492   422   508      1
   493   423   425      1
   494   424   428      1
   495   425   426      2
   496   425   427      1
   497   426   509      1
   498   426   510      1
   499   427   431      1
   500   427   435      1
   501   427   442      1
   502   428   429      1
   503   428   430      2
   504   429   436      1
   505   429   440      1
   506   429   441      1
   507   431   432      1
   508   431   511      1
   509   431   512      1
   510   432   433      1
   511   433   434      1
   512   433   445      1
   513   433   446      1
   514   434   435      1
   515   435   513      1
   516   435   514      1
   517   436   437      1
   518   436   515      1
   519   436   516      1
   520   437   438      1
   521   438   439      1
   522   438   443      1
   523   438   444      1
   524   439   440      1
   525   440   517      1
   526   440   518      1
   527   441   519      1
   528   441   520      1
   529   441   521      1
   530   442   522      1
   531   442   523      1
   532   442   524      1
   533   443   525      1
   534   443   526      1
   535   443   527      1
   536   444   528      1
   537   444   529      1
   538   444   530      1
   539   445   531      1
   540   445   532      1
   541   445   533      1
   542   446   534      1
   543   446   535      1
   544   446   536      1
   545   537   538      1
   546   537   539      1
   547   538   548      1
   548   539   540      1
   549   539   619      1
   550   539   620      1
   551   540   541      1
   552   540   621      1
   553   540   622      1
   554   541   542      1
   555   542   543      2
   556   542   544      1
   557   544   545      1
   558   544   546      1
   559   545   623      1
   560   545   624      1
   561   545   625      1
   562   546   547      1
   563   546   626      1
   564   546   627      1
   565   547   628      1
   566   547   629      1
   567   548   549      1
   568   548   630      1
   569   548   631      1
   570   549   550      1
   571   549   632      1
   572   549   633      1
   573   550   551      1
   574   551   552      1
   575   551   553      2
   576   552   554      1
   577   552   555      1
   578   552   556      1
   579   554   558      1
   580   554   634      1
   581   554   635      1
   582   555   636      1
   583   555   637      1
   584   555   638      1
   585   556   557      1
   586   556   639      1
   587   556   640      1
   588   557   559      1
   589   558   589      1
   590   559   560      1
   591   559   561      2
   592   560   562      1
   593   560   563      1
   594   560   564      1
   595   562   566      1
   596   562   641      1
   597   562   642      1
   598   563   565      1
   599   563   643      1
   600   563   644      1
   601   564   645      1
   602   564   646      1
   603   564   647      1
   604   565   567      1
   605   566   578      1
   606   567   568      1
   607   567   569      2
   608   568   570      1
   609   568   574      1
   610   568   575      1
   611   570   571      1
   612   570   648      1
   613   570   649      1
   614   571   572      1
   615   572   573      1
   616   572   576      1
   617   572   577      1
   618   573   574      1
   619   574   650      1
   620   574   651      1
   621   575   652      1
   622   575   653      1
   623   575   654      1
   624   576   655      1
   625   576   656      1
   626   576   657      1
   627   577   658      1
   628   577   659      1
   629   577   660      1
   630   578   579      1
   631   578   580      2
   632   579   581      1
   633   579   585      1
   634   579   586      1
   635   581   582      1
   636   581   661      1
   637   581   662      1
   638   582   583      1
   639   583   584      1
   640   583   587      1
   641   583   588      1
   642   584   585      1
   643   585   663      1
   644   585   664      1
   645   586   665      1
   646   586   666      1
   647   586   667      1
   648   587   668      1
   649   587   669      1
   650   587   670      1
   651   588   671      1
   652   588   672      1
   653   588   673      1
   654   589   590      1
   655   589   591      2
   656   590   592      1
   657   590   593      1
   658   590   594      1
   659   592   596      1
   660   592   674      1
   661   592   675      1
   662   593   595      1
   663   593   676      1
   664   593   677      1
   665   594   678      1
   666   594   679      1
   667   594   680      1
   668   595   597      1
   669   596   600      1
   670   597   598      2
   671   597   599      1
   672   598   681      1
   673   598   682      1
   674   599   603      1
   675   599   607      1
   676   599   614      1
   677   600   601      1
   678   600   602      2
   679   601   608      1
   680   601   612      1
   681   601   613      1
   682   603   604      1
   683   603   683      1
   684   603   684      1
   685   604   605      1
   686   605   606      1
   687   605   617      1
   688   605   618      1
   689   606   607      1
   690   607   685      1
   691   607   686      1
   692   608   609      1
   693   608   687      1
   694   608   688      1
   695   609   610      1
   696   610   611      1
   697   610   615      1
   698   610   616      1
   699   611   612      1
   700   612   689      1
   701   612   690      1
   702   613   691      1
   703   613   692      1
   704   613   693      1
   705   614   694      1
   706   614   695      1
   707   614   696      1
   708   615   697      1
   709   615   698      1
   710   615   699      1
   711   616   700      1
   712   616   701      1
   713   616   702      1
   714   617   703      1
   715   617   704      1
   716   617   705      1
   717   618   706      1
   718   618   707      1
   719   618   708      1
   720   709   710      1
   721   709   711      1
   722   710   720      1
   723   711   712      1
   724   711   791      1
   725   711   792      1
   726   712   713      1
   727   712   793      1
   728   712   794      1
   729   713   714      1
   730   714   715      2
   731   714   716      1
   732   716   717      1
   733   716   718      1
   734   717   795      1
   735   717   796      1
   736   717   797      1
   737   718   719      1
   738   718   798      1
   739   718   799      1
   740   719   800      1
   741   719   801      1
   742   720   721      1
   743   720   802      1
   744   720   803      1
   745   721   722      1
   746   721   804      1
   747   721   805      1
   748   722   723      1
   749   723   724      1
   750   723   725      2
   751   724   726      1
   752   724   727      1
   753   724   728      1
   754   726   730      1
   755   726   806      1
   756   726   807      1
   757   727   808      1
   758   727   809      1
   759   727   810      1
   760   728   729      1
   761   728   811      1
   762   728   812      1
   763   729   731      1
   764   730   761      1
   765   731   732      1
   766   731   733      2
   767   732   734      1
   768   732   735      1
   769   732   736      1
   770   734   738      1
   771   734   813      1
   772   734   814      1
   773   735   737      1
   774   735   815      1
   775   735   816      1
   776   736   817      1
   777   736   818      1
   778   736   819      1
   779   737   739      1
   780   738   750      1
   781   739   740      1
   782   739   741      2
   783   740   742      1
   784   740   746      1
   785   740   747      1
   786   742   743      1
   787   742   820      1
   788   742   821      1
   789   743   744      1
   790   744   745      1
   791   744   748      1
   792   744   749      1
   793   745   746      1
   794   746   822      1
   795   746   823      1
   796   747   824      1
   797   747   825      1
   798   747   826      1
   799   748   827      1
   800   748   828      1
   801   748   829      1
   802   749   830      1
   803   749   831      1
   804   749   832      1
   805   750   751      1
   806   750   752      2
   807   751   753      1
   808   751   757      1
   809   751   758      1
   810   753   754      1
   811   753   833      1
   812   753   834      1
   813   754   755      1
   814   755   756      1
   815   755   759      1
   816   755   760      1
   817   756   757      1
   818   757   835      1
   819   757   836      1
   820   758   837      1
   821   758   838      1
   822   758   839      1
   823   759   840      1
   824   759   841      1
   825   759   842      1
   826   760   843      1
   827   760   844      1
   828   760   845      1
   829   761   762      1
   830   761   763      2
   831   762   764      1
   832   762   765      1
   833   762   766      1
   834   764   768      1
   835   764   846      1
   836   764   847      1
   837   765   767      1
   838   765   848      1
   839   765   849      1
   840   766   850      1
   841   766   851      1
   842   766   852      1
   843   767   769      1
   844   768   772      1
   845   769   770      2
   846   769   771      1
   847   770   853      1
   848   770   854      1
   849   771   775      1
   850   771   779      1
   851   771   786      1
   852   772   773      1
   853   772   774      2
   854   773   780      1
   855   773   784      1
   856   773   785      1
   857   775   776      1
   858   775   855      1
   859   775   856      1
   860   776   777      1
   861   777   778      1
   862   777   789      1
   863   777   790      1
   864   778   779      1
   865   779   857      1
   866   779   858      1
   867   780   781      1
   868   780   859      1
   869   780   860      1
   870   781   782      1
   871   782   783      1
   872   782   787      1
   873   782   788      1
   874   783   784      1
   875   784   861      1
   876   784   862      1
   877   785   863      1
   878   785   864      1
   879   785   865      1
   880   786   866      1
   881   786   867      1
   882   786   868      1
   883   787   869      1
   884   787   870      1
   885   787   871      1
   886   788   872      1
   887   788   873      1
   888   788   874      1
   889   789   875      1
   890   789   876      1
   891   789   877      1
   892   790   878      1
   893   790   879      1
   894   790   880      1
   895   881   882      1
   896   881   883      1
   897   882   892      1
   898   883   884      1
   899   883   963      1
   900   883   964      1
   901   884   885      1
   902   884   965      1
   903   884   966      1
   904   885   886      1
   905   886   887      2
   906   886   888      1
   907   888   889      1
   908   888   890      1
   909   889   967      1
   910   889   968      1
   911   889   969      1
   912   890   891      1
   913   890   970      1
   914   890   971      1
   915   891   972      1
   916   891   973      1
   917   892   893      1
   918   892   974      1
   919   892   975      1
   920   893   894      1
   921   893   976      1
   922   893   977      1
   923   894   895      1
   924   895   896      1
   925   895   897      2
   926   896   898      1
   927   896   899      1
   928   896   900      1
   929   898   902      1
   930   898   978      1
   931   898   979      1
   932   899   980      1
   933   899   981      1
   934   899   982      1
   935   900   901      1
   936   900   983      1
   937   900   984      1
   938   901   903      1
   939   902   933      1
   940   903   904      1
   941   903   905      2
   942   904   906      1
   943   904   907      1
   944   904   908      1
   945   906   910      1
   946   906   985      1
   947   906   986      1
   948   907   909      1
   949   907   987      1
   950   907   988      1
   951   908   989      1
   952   908   990      1
   953   908   991      1
   954   909   911      1
   955   910   922      1
   956   911   912      1
   957   911   913      2
   958   912   914      1
   959   912   918      1
   960   912   919      1
   961   914   915      1
   962   914   992      1
   963   914   993      1
   964   915   916      1
   965   916   917      1
   966   916   920      1
   967   916   921      1
   968   917   918      1
   969   918   994      1
   970   918   995      1
   971   919   996      1
   972   919   997      1
   973   919   998      1
   974   920   999      1
   975   920  1000      1
   976   920  1001      1
   977   921  1002      1
   978   921  1003      1
   979   921  1004      1
   980   922   923      1
   981   922   924      2
   982   923   925      1
   983   923   929      1
   984   923   930      1
   985   925   926      1
   986   925  1005      1
   987   925  1006      1
   988   926   927      1
   989   927   928      1
   990   927   931      1
   991   927   932      1
   992   928   929      1
   993   929  1007      1
   994   929  1008      1
   995   930  1009      1
   996   930  1010      1
   997   930  1011      1
   998   931  1012      1
   999   931  1013      1
  1000   931  1014      1
  1001   932  1015      1
  1002   932  1016      1
  1003   932  1017      1
  1004   933   934      1
  1005   933   935      2
  1006   934   936      1
  1007   934   937      1
  1008   934   938      1
  1009   936   940      1
  1010   936  1018      1
  1011   936  1019      1
  1012   937   939      1
  1013   937  1020      1
  1014   937  1021      1
  1015   938  1022      1
  1016   938  1023      1
  1017   938  1024      1
  1018   939   941      1
  1019   940   944      1
  1020   941   942      2
  1021   941   943      1
  1022   942  1025      1
  1023   942  1026      1
  1024   943   947      1
  1025   943   951      1
  1026   943   958      1
  1027   944   945      1
  1028   944   946      2
  1029   945   952      1
  1030   945   956      1
  1031   945   957      1
  1032   947   948      1
  1033   947  1027      1
  1034   947  1028      1
  1035   948   949      1
  1036   949   950      1
  1037   949   961      1
  1038   949   962      1
  1039   950   951      1
  1040   951  1029      1
  1041   951  1030      1
  1042   952   953      1
  1043   952  1031      1
  1044   952  1032      1
  1045   953   954      1
  1046   954   955      1
  1047   954   959      1
  1048   954   960      1
  1049   955   956      1
  1050   956  1033      1
  1051   956  1034      1
  1052   957  1035      1
  1053   957  1036      1
  1054   957  1037      1
  1055   958  1038      1
  1056   958  1039      1
  1057   958  1040      1
  1058   959  1041      1
  1059   959  1042      1
  1060   959  1043      1
  1061   960  1044      1
  1062   960  1045      1
  1063   960  1046      1
  1064   961  1047      1
  1065   961  1048      1
  1066   961  1049      1
  1067   962  1050      1
  1068   962  1051      1
  1069   962  1052      1
  1070  1053  1054      1
  1071  1053  1055      1
  1072  1054  1064      1
  1073  1055  1056      1
  1074  1055  1135      1
  1075  1055  1136      1
  1076  1056  1057      1
  1077  1056  1137      1
  1078  1056  1138      1
  1079  1057  1058      1
  1080  1058  1059      2
  1081  1058  1060      1
  1082  1060  1061      1
  1083  1060  1062      1
  1084  1061  1139      1
  1085  1061  1140      1
  1086  1061  1141      1
  1087  1062  1063      1
  1088  1062  1142      1
  1089  1062  1143      1
  1090  1063  1144      1
  1091  1063  1145      1
  1092  1064  1065      1
  1093  1064  1146      1
  1094  1064  1147      1
  1095  1065  1066      1
  1096  1065  1148      1
  1097  1065  1149      1
  1098  1066  1067      1
  1099  1067  1068      1
  1100  1067  1069      2
  1101  1068  1070      1
  1102  1068  1071      1
  1103  1068  1072      1
  1104  1070  1074      1
  1105  1070  1150      1
  1106  1070  1151      1
  1107  1071  1152      1
  1108  1071  1153      1
  1109  1071  1154      1
  1110  1072  1073      1
  1111  1072  1155      1
  1112  1072  1156      1
  1113  1073  1075      1
  1114  1074  1105      1
  1115  1075  1076      1
  1116  1075  1077      2
  1117  1076  1078      1
  1118  1076  1079      1
  1119  1076  1080      1
  1120  1078  1082      1
  1121  1078  1157      1
  1122  1078  1158      1
  1123  1079  1081      1
  1124  1079  1159      1
  1125  1079  1160      1
  1126  1080  1161      1
  1127  1080  1162      1
  1128  1080  1163      1
  1129  1081  1083      1
  1130  1082  1094      1
  1131  1083  1084      1
  1132  1083  1085      2
  1133  1084  1086      1
  1134  1084  1090      1
  1135  1084  1091      1
  1136  1086  1087      1
  1137  1086  1164      1
  1138  1086  1165      1
  1139  1087  1088      1
  1140  1088  1089      1
  1141  1088  1092      1
  1142  1088  1093      1
  1143  1089  1090      1
  1144  1090  1166      1
  1145  1090  1167      1
  1146  1091  1168      1
  1147  1091  1169      1
  1148  1091  1170      1
  1149  1092  1171      1
  1150  1092  1172      1
  1151  1092  1173      1
  1152  1093  1174      1
  1153  1093  1175      1
  1154  1093  1176      1
  1155  1094  1095      1
  1156  1094  1096      2
  1157  1095  1097      1
  1158  1095  1101      1
  1159  1095  1102      1
  1160  1097  1098      1
  1161  1097  1177      1
  1162  1097  1178      1
  1163  1098  1099      1
  1164  1099  1100      1
  1165  1099  1103      1
  1166  1099  1104      1
  1167  1100  1101      1
  1168  1101  1179      1
  1169  1101  1180      1
  1170  1102  1181      1
  1171  1102  1182      1
  1172  1102  1183      1
  1173  1103  1184      1
  1174  1103  1185      1
  1175  1103  1186      1
  1176  1104  1187      1
  1177  1104  1188      1
  1178  1104  1189      1
  1179  1105  1106      1
  1180  1105  1107      2
  1181  1106  1108      1
  1182  1106  1109      1
  1183  1106  1110      1
  1184  1108  1112      1
  1185  1108  1190      1
  1186  1108  1191      1
  1187  1109  1111      1
  1188  1109  1192      1
  1189  1109  1193      1
  1190  1110  1194      1
  1191  1110  1195      1
  1192  1110  1196      1
  1193  1111  1113      1
  1194  1112  1116      1
  1195  1113  1114      2
  1196  1113  1115      1
  1197  1114  1197      1
  1198  1114  1198      1
  1199  1115  1119      1
  1200  1115  1123      1
  1201  1115  1130      1
  1202  1116  1117      1
  1203  1116  1118      2
  1204  1117  1124      1
  1205  1117  1128      1
  1206  1117  1129      1
  1207  1119  1120      1
  1208  1119  1199      1
  1209  1119  1200      1
  1210  1120  1121      1
  1211  1121  1122      1
  1212  1121  1133      1
  1213  1121  1134      1
  1214  1122  1123      1
  1215  1123  1201      1
  1216  1123  1202      1
  1217  1124  1125      1
  1218  1124  1203      1
  1219  1124  1204      1
  1220  1125  1126      1
  1221  1126  1127      1
  1222  1126  1131      1
  1223  1126  1132      1
  1224  1127  1128      1
  1225  1128  1205      1
  1226  1128  1206      1
  1227  1129  1207      1
  1228  1129  1208      1
  1229  1129  1209      1
  1230  1130  1210      1
  1231  1130  1211      1
  1232  1130  1212      1
  1233  1131  1213      1
  1234  1131  1214      1
  1235  1131  1215      1
  1236  1132  1216      1
  1237  1132  1217      1
  1238  1132  1218      1
  1239  1133  1219      1
  1240  1133  1220      1
  1241  1133  1221      1
  1242  1134  1222      1
  1243  1134  1223      1
  1244  1134  1224      1
  1245  1225  1226      1
  1246  1225  1227      1
  1247  1226  1236      1
  1248  1227  1228      1
  1249  1227  1307      1
  1250  1227  1308      1
  1251  1228  1229      1
  1252  1228  1309      1
  1253  1228  1310      1
  1254  1229  1230      1
  1255  1230  1231      2
  1256  1230  1232      1
  1257  1232  1233      1
  1258  1232  1234      1
  1259  1233  1311      1
  1260  1233  1312      1
  1261  1233  1313      1
  1262  1234  1235      1
  1263  1234  1314      1
  1264  1234  1315      1
  1265  1235  1316      1
  1266  1235  1317      1
  1267  1236  1237      1
  1268  1236  1318      1
  1269  1236  1319      1
  1270  1237  1238      1
  1271  1237  1320      1
  1272  1237  1321      1
  1273  1238  1239      1
  1274  1239  1240      1
  1275  1239  1241      2
  1276  1240  1242      1
  1277  1240  1243      1
  1278  1240  1244      1
  1279  1242  1246      1
  1280  1242  1322      1
  1281  1242  1323      1
  1282  1243  1324      1
  1283  1243  1325      1
  1284  1243  1326      1
  1285  1244  1245      1
  1286  1244  1327      1
  1287  1244  1328      1
  1288  1245  1247      1
  1289  1246  1277      1
  1290  1247  1248      1
  1291  1247  1249      2
  1292  1248  1250      1
  1293  1248  1251      1
  1294  1248  1252      1
  1295  1250  1254      1
  1296  1250  1329      1
  1297  1250  1330      1
  1298  1251  1253      1
  1299  1251  1331      1
  1300  1251  1332      1
  1301  1252  1333      1
  1302  1252  1334      1
  1303  1252  1335      1
  1304  1253  1255      1
  1305  1254  1266      1
  1306  1255  1256      1
  1307  1255  1257      2
  1308  1256  1258      1
  1309  1256  1262      1
  1310  1256  1263      1
  1311  1258  1259      1
  1312  1258  1336      1
  1313  1258  1337      1
  1314  1259  1260      1
  1315  1260  1261      1
  1316  1260  1264      1
  1317  1260  1265      1
  1318  1261  1262      1
  1319  1262  1338      1
  1320  1262  1339      1
  1321  1263  1340      1
  1322  1263  1341      1
  1323  1263  1342      1
  1324  1264  1343      1
  1325  1264  1344      1
  1326  1264  1345      1
  1327  1265  1346      1
  1328  1265  1347      1
  1329  1265  1348      1
  1330  1266  1267      1
  1331  1266  1268      2
  1332  1267  1269      1
  1333  1267  1273      1
  1334  1267  1274      1
  1335  1269  1270      1
  1336  1269  1349      1
  1337  1269  1350      1
  1338  1270  1271      1
  1339  1271  1272      1
  1340  1271  1275      1
  1341  1271  1276      1
  1342  1272  1273      1
  1343  1273  1351      1
  1344  1273  1352      1
  1345  1274  1353      1
  1346  1274  1354      1
  1347  1274  1355      1
  1348  1275  1356      1
  1349  1275  1357      1
  1350  1275  1358      1
  1351  1276  1359      1
  1352  1276  1360      1
  1353  1276  1361      1
  1354  1277  1278      1
  1355  1277  1279      2
  1356  1278  1280      1
  1357  1278  1281      1
  1358  1278  1282      1
  1359  1280  1284      1
  1360  1280  1362      1
  1361  1280  1363      1
  1362  1281  1283      1
  1363  1281  1364      1
  1364  1281  1365      1
  1365  1282  1366      1
  1366  1282  1367      1
  1367  1282  1368      1
  1368  1283  1285      1
  1369  1284  1288      1
  1370  1285  1286      2
  1371  1285  1287      1
  1372  1286  1369      1
  1373  1286  1370      1
  1374  1287  1291      1
  1375  1287  1295      1
  1376  1287  1302      1
  1377  1288  1289      1
  1378  1288  1290      2
  1379  1289  1296      1
  1380  1289  1300      1
  1381  1289  1301      1
  1382  1291  1292      1
  1383  1291  1371      1
  1384  1291  1372      1
  1385  1292  1293      1
  1386  1293  1294      1
  1387  1293  1305      1
  1388  1293  1306      1
  1389  1294  1295      1
  1390  1295  1373      1
  1391  1295  1374      1
  1392  1296  1297      1
  1393  1296  1375      1
  1394  1296  1376      1
  1395  1297  1298      1
  1396  1298  1299      1
  1397  1298  1303      1
  1398  1298  1304      1
  1399  1299  1300      1
  1400  1300  1377      1
  1401  1300  1378      1
  1402  1301  1379      1
  1403  1301  1380      1
  1404  1301  1381      1
  1405  1302  1382      1
  1406  1302  1383      1
  1407  1302  1384      1
  1408  1303  1385      1
  1409  1303  1386      1
  1410  1303  1387      1
  1411  1304  1388      1
  1412  1304  1389      1
  1413  1304  1390      1
  1414  1305  1391      1
  1415  1305  1392      1
  1416  1305  1393      1
  1417  1306  1394      1
  1418  1306  1395      1
  1419  1306  1396      1
  1420  1397  1398      1
  1421  1397  1399      1
  1422  1398  1408      1
  1423  1399  1400      1
  1424  1399  1479      1
  1425  1399  1480      1
  1426  1400  1401      1
  1427  1400  1481      1
  1428  1400  1482      1
  1429  1401  1402      1
  1430  1402  1403      2
  1431  1402  1404      1
  1432  1404  1405      1
  1433  1404  1406      1
  1434  1405  1483      1
  1435  1405  1484      1
  1436  1405  1485      1
  1437  1406  1407      1
  1438  1406  1486      1
  1439  1406  1487      1
  1440  1407  1488      1
  1441  1407  1489      1
  1442  1408  1409      1
  1443  1408  1490      1
  1444  1408  1491      1
  1445  1409  1410      1
  1446  1409  1492      1
  1447  1409  1493      1
  1448  1410  1411      1
  1449  1411  1412      1
  1450  1411  1413      2
  1451  1412  1414      1
  1452  1412  1415      1
  1453  1412  1416      1
  1454  1414  1418      1
  1455  1414  1494      1
  1456  1414  1495      1
  1457  1415  1496      1
  1458  1415  1497      1
  1459  1415  1498      1
  1460  1416  1417      1
  1461  1416  1499      1
  1462  1416  1500      1
  1463  1417  1419      1
  1464  1418  1449      1
  1465  1419  1420      1
  1466  1419  1421      2
  1467  1420  1422      1
  1468  1420  1423      1
  1469  1420  1424      1
  1470  1422  1426      1
  1471  1422  1501      1
  1472  1422  1502      1
  1473  1423  1425      1
  1474  1423  1503      1
  1475  1423  1504      1
  1476  1424  1505      1
  1477  1424  1506      1
  1478  1424  1507      1
  1479  1425  1427      1
  1480  1426  1438      1
  1481  1427  1428      1
  1482  1427  1429      2
  1483  1428  1430      1
  1484  1428  1434      1
  1485  1428  1435      1
  1486  1430  1431      1
  1487  1430  1508      1
  1488  1430  1509      1
  1489  1431  1432      1
  1490  1432  1433      1
  1491  1432  1436      1
  1492  1432  1437      1
  1493  1433  1434      1
  1494  1434  1510      1
  1495  1434  1511      1
  1496  1435  1512      1
  1497  1435  1513      1
  1498  1435  1514      1
  1499  1436  1515      1
  1500  1436  1516      1
  1501  1436  1517      1
  1502  1437  1518      1
  1503  1437  1519      1
  1504  1437  1520      1
  1505  1438  1439      1
  1506  1438  1440      2
  1507  1439  1441      1
  1508  1439  1445      1
  1509  1439  1446      1
  1510  1441  1442      1
  1511  1441  1521      1
  1512  1441  1522      1
  1513  1442  1443      1
  1514  1443  1444      1
  1515  1443  1447      1
  1516  1443  1448      1
  1517  1444  1445      1
  1518  1445  1523      1
  1519  1445  1524      1
  1520  1446  1525      1
  1521  1446  1526      1
  1522  1446  1527      1
  1523  1447  1528      1
  1524  1447  1529      1
  1525  1447  1530      1
  1526  1448  1531      1
  1527  1448  1532      1
  1528  1448  1533      1
  1529  1449  1450      1
  1530  1449  1451      2
  1531  1450  1452      1
  1532  1450  1453      1
  1533  1450  1454      1
  1534  1452  1456      1
  1535  1452  1534      1
  1536  1452  1535      1
  1537  1453  1455      1
  1538  1453  1536      1
  1539  1453  1537      1
  1540  1454  1538      1
  1541  1454  1539      1
  1542  1454  1540      1
  1543  1455  1457      1
  1544  1456  1460      1
  1545  1457  1458      2
  1546  1457  1459      1
  1547  1458  1541      1
  1548  1458  1542      1
  1549  1459  1463      1
  1550  1459  1467      1
  1551  1459  1474      1
  1552  1460  1461      1
  1553  1460  1462      2
  1554  1461  1468      1
  1555  1461  1472      1
  1556  1461  1473      1
  1557  1463  1464      1
  1558  1463  1543      1
  1559  1463  1544      1
  1560  1464  1465      1
  1561  1465  1466      1
  1562  1465  1477      1
  1563  1465  1478      1
  1564  1466  1467      1
  1565  1467  1545      1
  1566  1467  1546      1
  1567  1468  1469      1
  1568  1468  1547      1
  1569  1468  1548      1
  1570  1469  1470      1
  1571  1470  1471      1
  1572  1470  1475      1
  1573  1470  1476      1
  1574  1471  1472      1
  1575  1472  1549      1
  1576  1472  1550      1
  1577  1473  1551      1
  1578  1473  1552      1
  1579  1473  1553      1
  1580  1474  1554      1
  1581  1474  1555      1
  1582  1474  1556      1
  1583  1475  1557      1
  1584  1475  1558      1
  1585  1475  1559      1
  1586  1476  1560      1
  1587  1476  1561      1
  1588  1476  1562      1
  1589  1477  1563      1
  1590  1477  1564      1
  1591  1477  1565      1
  1592  1478  1566      1
  1593  1478  1567      1
  1594  1478  1568      1
  1595  1569  1570      1
  1596  1569  1571      1
  1597  1570  1580      1
  1598  1571  1572      1
  1599  1571  1651      1
  1600  1571  1652      1
  1601  1572  1573      1
  1602  1572  1653      1
  1603  1572  1654      1
  1604  1573  1574      1
  1605  1574  1575      2
  1606  1574  1576      1
  1607  1576  1577      1
  1608  1576  1578      1
  1609  1577  1655      1
  1610  1577  1656      1
  1611  1577  1657      1
  1612  1578  1579      1
  1613  1578  1658      1
  1614  1578  1659      1
  1615  1579  1660      1
  1616  1579  1661      1
  1617  1580  1581      1
  1618  1580  1662      1
  1619  1580  1663      1
  1620  1581  1582      1
  1621  1581  1664      1
  1622  1581  1665      1
  1623  1582  1583      1
  1624  1583  1584      1
  1625  1583  1585      2
  1626  1584  1586      1
  1627  1584  1587      1
  1628  1584  1588      1
  1629  1586  1590      1
  1630  1586  1666      1
  1631  1586  1667      1
  1632  1587  1668      1
  1633  1587  1669      1
  1634  1587  1670      1
  1635  1588  1589      1
  1636  1588  1671      1
  1637  1588  1672      1
  1638  1589  1591      1
  1639  1590  1621      1
  1640  1591  1592      1
  1641  1591  1593      2
  1642  1592  1594      1
  1643  1592  1595      1
  1644  1592  1596      1
  1645  1594  1598      1
  1646  1594  1673      1
  1647  1594  1674      1
  1648  1595  1597      1
  1649  1595  1675      1
  1650  1595  1676      1
  1651  1596  1677      1
  1652  1596  1678      1
  1653  1596  1679      1
  1654  1597  1599      1
  1655  1598  1610      1
  1656  1599  1600      1
  1657  1599  1601      2
  1658  1600  1602      1
  1659  1600  1606      1
  1660  1600  1607      1
  1661  1602  1603      1
  1662  1602  1680      1
  1663  1602  1681      1
  1664  1603  1604      1
  1665  1604  1605      1
  1666  1604  1608      1
  1667  1604  1609      1
  1668  1605  1606      1
  1669  1606  1682      1
  1670  1606  1683      1
  1671  1607  1684      1
  1672  1607  1685      1
  1673  1607  1686      1
  1674  1608  1687      1
  1675  1608  1688      1
  1676  1608  1689      1
  1677  1609  1690      1
  1678  1609  1691      1
  1679  1609  1692      1
  1680  1610  1611      1
  1681  1610  1612      2
  1682  1611  1613      1
  1683  1611  1617      1
  1684  1611  1618      1
  1685  1613  1614      1
  1686  1613  1693      1
  1687  1613  1694      1
  1688  1614  1615      1
  1689  1615  1616      1
  1690  1615  1619      1
  1691  1615  1620      1
  1692  1616  1617      1
  1693  1617  1695      1
  1694  1617  1696      1
  1695  1618  1697      1
  1696  1618  1698      1
  1697  1618  1699      1
  1698  1619  1700      1
  1699  1619  1701      1
  1700  1619  1702      1
  1701  1620  1703      1
  1702  1620  1704      1
  1703  1620  1705      1
  1704  1621  1622      1
  1705  1621  1623      2
  1706  1622  1624      1
  1707  1622  1625      1
  1708  1622  1626      1
  1709  1624  1628      1
  1710  1624  1706      1
  1711  1624  1707      1
  1712  1625  1627      1
  1713  1625  1708      1
  1714  1625  1709      1
  1715  1626  1710      1
  1716  1626  1711      1
  1717  1626  1712      1
  1718  1627  1629      1
  1719  1628  1632      1
  1720  1629  1630      2
  1721  1629  1631      1
  1722  1630  1713      1
  1723  1630  1714      1
  1724  1631  1635      1
  1725  1631  1639      1
  1726  1631  1646      1
  1727  1632  1633      1
  1728  1632  1634      2
  1729  1633  1640      1
  1730  1633  1644      1
  1731  1633  1645      1
  1732  1635  1636      1
  1733  1635  1715      1
  1734  1635  1716      1
  1735  1636  1637      1
  1736  1637  1638      1
  1737  1637  1649      1
  1738  1637  1650      1
  1739  1638  1639      1
  1740  1639  1717      1
  1741  1639  1718      1
  1742  1640  1641      1
  1743  1640  1719      1
  1744  1640  1720      1
  1745  1641  1642      1
  1746  1642  1643      1
  1747  1642  1647      1
  1748  1642  1648      1
  1749  1643  1644      1
  1750  1644  1721      1
  1751  1644  1722      1
  1752  1645  1723      1
  1753  1645  1724      1
  1754  1645  1725      1
  1755  1646  1726      1
  1756  1646  1727      1
  1757  1646  1728      1
  1758  1647  1729      1
  1759  1647  1730      1
  1760  1647  1731      1
  1761  1648  1732      1
  1762  1648  1733      1
  1763  1648  1734      1
  1764  1649  1735      1
  1765  1649  1736      1
  1766  1649  1737      1
  1767  1650  1738      1
  1768  1650  1739      1
  1769  1650  1740      1
  1770  1741  1742     ar
  1771  1741  1746     ar
  1772  1741  1747      1
  1773  1742  1743     ar
  1774  1742  1750      1
  1775  1743  1744     ar
  1776  1743  1751      1
  1777  1744  1745     ar
  1778  1744  1752      1
  1779  1745  1746     ar
  1780  1745  1753      1
  1781  1746  1754      1
  1782  1747  1748      1
  1783  1747  1749      2
  1784  1755  1756      1
  1785  1755  1761      1
  1786  1755  1762      1
  1787  1756  1757      1
  1788  1756  1763      1
  1789  1756  1767      1
  1790  1757  1758      2
  1791  1757  1759      1
  1792  1759  1760      1
  1793  1760  1764      1
  1794  1760  1765      1
  1795  1760  1766      1
  1796  1767  1768      1
  1797  1767  1773      1
  1798  1767  1774      1
  1799  1768  1769      1
  1800  1768  1775      1
  1801  1768  1779      1
  1802  1769  1770      2
  1803  1769  1771      1
  1804  1771  1772      1
  1805  1772  1776      1
  1806  1772  1777      1
  1807  1772  1778      1
  1808  1779  1780      1
  1809  1779  1785      1
  1810  1779  1786      1
  1811  1780  1781      1
  1812  1780  1787      1
  1813  1780  1791      1
  1814  1781  1782      2
  1815  1781  1783      1
  1816  1783  1784      1
  1817  1784  1788      1
  1818  1784  1789      1
  1819  1784  1790      1
  1820  1791  1792      1
  1821  1791  1797      1
  1822  1791  1798      1
  1823  1792  1793      1
  1824  1792  1799      1
  1825  1792  1803      1
  1826  1793  1794      2
  1827  1793  1795      1
  1828  1795  1796      1
  1829  1796  1800      1
  1830  1796  1801      1
  1831  1796  1802      1
  1832  1803  1804      1
  1833  1803  1809      1
  1834  1803  1810      1
  1835  1804  1805      1
  1836  1804  1811      1
  1837  1804  1815      1
  1838  1805  1806      2
  1839  1805  1807      1
  1840  1807  1808      1
  1841  1808  1812      1
  1842  1808  1813      1
  1843  1808  1814      1
  1844  1815  1816      1
  1845  1815  1821      1
  1846  1815  1822      1
  1847  1816  1817      1
  1848  1816  1823      1
  1849  1816  1827      1
  1850  1817  1818      2
  1851  1817  1819      1
  1852  1819  1820      1
  1853  1820  1824      1
  1854  1820  1825      1
  1855  1820  1826      1
  1856  1827  1828      1
  1857  1827  1833      1
  1858  1827  1834      1
  1859  1828  1829      1
  1860  1828  1835      1
  1861  1828  1839      1
  1862  1829  1830      2
  1863  1829  1831      1
  1864  1831  1832      1
  1865  1832  1836      1
  1866  1832  1837      1
  1867  1832  1838      1
  1868  1839  1840      1
  1869  1839  1845      1
  1870  1839  1846      1
  1871  1840  1841      1
  1872  1840  1847      1
  1873  1840  1851      1
  1874  1841  1842      2
  1875  1841  1843      1
  1876  1843  1844      1
  1877  1844  1848      1
  1878  1844  1849      1
  1879  1844  1850      1
  1880  1851  1852      1
  1881  1851  1857      1
  1882  1851  1858      1
  1883  1852  1853      1
  1884  1852  1859      1
  1885  1852  1863      1
  1886  1853  1854      2
  1887  1853  1855      1
  1888  1855  1856      1
  1889  1856  1860      1
  1890  1856  1861      1
  1891  1856  1862      1
  1892  1863  1864      1
  1893  1863  1869      1
  1894  1863  1870      1
  1895  1864  1865      1
  1896  1864  1871      1
  1897  1864  1875      1
  1898  1865  1866      2
  1899  1865  1867      1
  1900  1867  1868      1
  1901  1868  1872      1
  1902  1868  1873      1
  1903  1868  1874      1
  1904  1875  1876      1
  1905  1875  1881      1
  1906  1875  1882      1
  1907  1876  1877      1
  1908  1876  1883      1
  1909  1877  1878      2
  1910  1877  1879      1
  1911  1879  1880      1
  1912  1880  1884      1
  1913  1880  1885      1
  1914  1880  1886      1
  1915  1887  1888      1
  1916  1887  1893      1
  1917  1887  1894      1
  1918  1888  1889      1
  1919  1888  1895      1
  1920  1888  1899      1
  1921  1889  1890      2
  1922  1889  1891      1
  1923  1891  1892      1
  1924  1892  1896      1
  1925  1892  1897      1
  1926  1892  1898      1
  1927  1899  1900      1
  1928  1899  1905      1
  1929  1899  1906      1
  1930  1900  1901      1
  1931  1900  1907      1
  1932  1900  1911      1
  1933  1901  1902      2
  1934  1901  1903      1
  1935  1903  1904      1
  1936  1904  1908      1
  1937  1904  1909      1
  1938  1904  1910      1
  1939  1911  1912      1
  1940  1911  1917      1
  1941  1911  1918      1
  1942  1912  1913      1
  1943  1912  1919      1
  1944  1912  1923      1
  1945  1913  1914      2
  1946  1913  1915      1
  1947  1915  1916      1
  1948  1916  1920      1
  1949  1916  1921      1
  1950  1916  1922      1
  1951  1923  1924      1
  1952  1923  1929      1
  1953  1923  1930      1
  1954  1924  1925      1
  1955  1924  1931      1
  1956  1924  1935      1
  1957  1925  1926      2
  1958  1925  1927      1
  1959  1927  1928      1
  1960  1928  1932      1
  1961  1928  1933      1
  1962  1928  1934      1
  1963  1935  1936      1
  1964  1935  1941      1
  1965  1935  1942      1
  1966  1936  1937      1
  1967  1936  1943      1
  1968  1936  1947      1
  1969  1937  1938      2
  1970  1937  1939      1
  1971  1939  1940      1
  1972  1940  1944      1
  1973  1940  1945      1
  1974  1940  1946      1
  1975  1947  1948      1
  1976  1947  1953      1
  1977  1947  1954      1
  1978  1948  1949      1
  1979  1948  1955      1
  1980  1948  1959      1
  1981  1949  1950      2
  1982  1949  1951      1
  1983  1951  1952      1
  1984  1952  1956      1
  1985  1952  1957      1
  1986  1952  1958      1
  1987  1959  1960      1
  1988  1959  1965      1
  1989  1959  1966      1
  1990  1960  1961      1
  1991  1960  1967      1
  1992  1960  1971      1
  1993  1961  1962      2
  1994  1961  1963      1
  1995  1963  1964      1
  1996  1964  1968      1
  1997  1964  1969      1
  1998  1964  1970      1
  1999  1971  1972      1
  2000  1971  1977      1
  2001  1971  1978      1
  2002  1972  1973      1
  2003  1972  1979      1
  2004  1972  1983      1
  2005  1973  1974      2
  2006  1973  1975      1
  2007  1975  1976      1
  2008  1976  1980      1
  2009  1976  1981      1
  2010  1976  1982      1
  2011  1983  1984      1
  2012  1983  1989      1
  2013  1983  1990      1
  2014  1984  1985      1
  2015  1984  1991      1
  2016  1984  1995      1
  2017  1985  1986      2
  2018  1985  1987      1
  2019  1987  1988      1
  2020  1988  1992      1
  2021  1988  1993      1
  2022  1988  1994      1
  2023  1995  1996      1
  2024  1995  2001      1
  2025  1995  2002      1
  2026  1996  1997      1
  2027  1996  2003      1
  2028  1996  2007      1
  2029  1997  1998      2
  2030  1997  1999      1
  2031  1999  2000      1
  2032  2000  2004      1
  2033  2000  2005      1
  2034  2000  2006      1
  2035  2007  2008      1
  2036  2007  2013      1
  2037  2007  2014      1
  2038  2008  2009      1
  2039  2008  2015      1
  2040  2008  2019      1
  2041  2009  2010      2
  2042  2009  2011      1
  2043  2011  2012      1
  2044  2012  2016      1
  2045  2012  2017      1
  2046  2012  2018      1
  2047  2019  2020      1
  2048  2019  2025      1
  2049  2019  2026      1
  2050  2020  2021      1
  2051  2020  2027      1
  2052  2020  2031      1
  2053  2021  2022      2
  2054  2021  2023      1
  2055  2023  2024      1
  2056  2024  2028      1
  2057  2024  2029      1
  2058  2024  2030      1
  2059  2031  2032      1
  2060  2031  2037      1
  2061  2031  2038      1
  2062  2032  2033      1
  2063  2032  2039      1
  2064  2032  2043      1
  2065  2033  2034      2
  2066  2033  2035      1
  2067  2035  2036      1
  2068  2036  2040      1
  2069  2036  2041      1
  2070  2036  2042      1
  2071  2043  2044      1
  2072  2043  2049      1
  2073  2043  2050      1
  2074  2044  2045      1
  2075  2044  2051      1
  2076  2044  2055      1
  2077  2045  2046      2
  2078  2045  2047      1
  2079  2047  2048      1
  2080  2048  2052      1
  2081  2048  2053      1
  2082  2048  2054      1
  2083  2055  2056      1
  2084  2055  2061      1
  2085  2055  2062      1
  2086  2056  2057      1
  2087  2056  2063      1
  2088  2056  2067      1
  2089  2057  2058      2
  2090  2057  2059      1
  2091  2059  2060      1
  2092  2060  2064      1
  2093  2060  2065      1
  2094  2060  2066      1
  2095  2067  2068      1
  2096  2067  2073      1
  2097  2067  2074      1
  2098  2068  2069      1
  2099  2068  2075      1
  2100  2068  2079      1
  2101  2069  2070      2
  2102  2069  2071      1
  2103  2071  2072      1
  2104  2072  2076      1
  2105  2072  2077      1
  2106  2072  2078      1
  2107  2079  2080      1
  2108  2079  2085      1
  2109  2079  2086      1
  2110  2080  2081      1
  2111  2080  2087      1
  2112  2080  2091      1
  2113  2081  2082      2
  2114  2081  2083      1
  2115  2083  2084      1
  2116  2084  2088      1
  2117  2084  2089      1
  2118  2084  2090      1
  2119  2091  2092      1
  2120  2091  2097      1
  2121  2091  2098      1
  2122  2092  2093      1
  2123  2092  2099      1
  2124  2092  2103      1
  2125  2093  2094      2
  2126  2093  2095      1
  2127  2095  2096      1
  2128  2096  2100      1
  2129  2096  2101      1
  2130  2096  2102      1
  2131  2103  2104      1
  2132  2103  2109      1
  2133  2103  2110      1
  2134  2104  2105      1
  2135  2104  2111      1
  2136  2104  2115      1
  2137  2105  2106      2
  2138  2105  2107      1
  2139  2107  2108      1
  2140  2108  2112      1
  2141  2108  2113      1
  2142  2108  2114      1
  2143  2115  2116      1
  2144  2115  2121      1
  2145  2115  2122      1
  2146  2116  2117      1
  2147  2116  2123      1
  2148  2116  2127      1
  2149  2117  2118      2
  2150  2117  2119      1
  2151  2119  2120      1
  2152  2120  2124      1
  2153  2120  2125      1
  2154  2120  2126      1
  2155  2127  2128      1
  2156  2127  2133      1
  2157  2127  2134      1
  2158  2128  2129      1
  2159  2128  2135      1
  2160  2128  2139      1
  2161  2129  2130      2
  2162  2129  2131      1
  2163  2131  2132      1
  2164  2132  2136      1
  2165  2132  2137      1
  2166  2132  2138      1
  2167  2139  2140      1
  2168  2139  2145      1
  2169  2139  2146      1
  2170  2140  2141      1
  2171  2140  2147      1
  2172  2140  2151      1
  2173  2141  2142      2
  2174  2141  2143      1
  2175  2143  2144      1
  2176  2144  2148      1
  2177  2144  2149      1
  2178  2144  2150      1
  2179  2151  2152      1
  2180  2151  2157      1
  2181  2151  2158      1
  2182  2152  2153      1
  2183  2152  2159      1
  2184  2152  2163      1
  2185  2153  2154      2
  2186  2153  2155      1
  2187  2155  2156      1
  2188  2156  2160      1
  2189  2156  2161      1
  2190  2156  2162      1
  2191  2163  2164      1
  2192  2163  2169      1
  2193  2163  2170      1
  2194  2164  2165      1
  2195  2164  2171      1
  2196  2164  2175      1
  2197  2165  2166      2
  2198  2165  2167      1
  2199  2167  2168      1
  2200  2168  2172      1
  2201  2168  2173      1
  2202  2168  2174      1
  2203  2175  2176      1
  2204  2175  2181      1
  2205  2175  2182      1
  2206  2176  2177      1
  2207  2176  2183      1
  2208  2176  2187      1
  2209  2177  2178      2
  2210  2177  2179      1
  2211  2179  2180      1
  2212  2180  2184      1
  2213  2180  2185      1
  2214  2180  2186      1
  2215  2187  2188      1
  2216  2187  2193      1
  2217  2187  2194      1
  2218  2188  2189      1
  2219  2188  2195      1
  2220  2188  2199      1
  2221  2189  2190      2
  2222  2189  2191      1
  2223  2191  2192      1
  2224  2192  2196      1
  2225  2192  2197      1
  2226  2192  2198      1
  2227  2199  2200      1
  2228  2199  2205      1
  2229  2199  2206      1
  2230  2200  2201      1
  2231  2200  2207      1
  2232  2200  2211      1
  2233  2201  2202      2
  2234  2201  2203      1
  2235  2203  2204      1
  2236  2204  2208      1
  2237  2204  2209      1
  2238  2204  2210      1
  2239  2211  2212      1
  2240  2211  2217      1
  2241  2211  2218      1
  2242  2212  2213      1
  2243  2212  2219      1
  2244  2212  2223      1
  2245  2213  2214      2
  2246  2213  2215      1
  2247  2215  2216      1
  2248  2216  2220      1
  2249  2216  2221      1
  2250  2216  2222      1
  2251  2223  2224      1
  2252  2223  2229      1
  2253  2223  2230      1
  2254  2224  2225      1
  2255  2224  2231      1
  2256  2224  2235      1
  2257  2225  2226      2
  2258  2225  2227      1
  2259  2227  2228      1
  2260  2228  2232      1
  2261  2228  2233      1
  2262  2228  2234      1
  2263  2235  2236      1
  2264  2235  2241      1
  2265  2235  2242      1
  2266  2236  2237      1
  2267  2236  2243      1
  2268  2236  2247      1
  2269  2237  2238      2
  2270  2237  2239      1
  2271  2239  2240      1
  2272  2240  2244      1
  2273  2240  2245      1
  2274  2240  2246      1
  2275  2247  2248      1
  2276  2247  2253      1
  2277  2247  2254      1
  2278  2248  2249      1
  2279  2248  2255      1
  2280  2248  2259      1
  2281  2249  2250      2
  2282  2249  2251      1
  2283  2251  2252      1
  2284  2252  2256      1
  2285  2252  2257      1
  2286  2252  2258      1
  2287  2259  2260      1
  2288  2259  2265      1
  2289  2259  2266      1
  2290  2260  2261      1
  2291  2260  2267      1
  2292  2260  2271      1
  2293  2261  2262      2
  2294  2261  2263      1
  2295  2263  2264      1
  2296  2264  2268      1
  2297  2264  2269      1
  2298  2264  2270      1
  2299  2271  2272      1
  2300  2271  2277      1
  2301  2271  2278      1
  2302  2272  2273      1
  2303  2272  2279      1
  2304  2273  2274      2
  2305  2273  2275      1
  2306  2275  2276      1
  2307  2276  2280      1
  2308  2276  2281      1
  2309  2276  2282      1
  2310  2283  2284      1
  2311  2283  2289      1
  2312  2283  2290      1
  2313  2284  2285      1
  2314  2284  2291      1
  2315  2284  2295      1
  2316  2285  2286      2
  2317  2285  2287      1
  2318  2287  2288      1
  2319  2288  2292      1
  2320  2288  2293      1
  2321  2288  2294      1
  2322  2295  2296      1
  2323  2295  2301      1
  2324  2295  2302      1
  2325  2296  2297      1
  2326  2296  2303      1
  2327  2296  2307      1
  2328  2297  2298      2
  2329  2297  2299      1
  2330  2299  2300      1
  2331  2300  2304      1
  2332  2300  2305      1
  2333  2300  2306      1
  2334  2307  2308      1
  2335  2307  2313      1
  2336  2307  2314      1
  2337  2308  2309      1
  2338  2308  2315      1
  2339  2308  2319      1
  2340  2309  2310      2
  2341  2309  2311      1
  2342  2311  2312      1
  2343  2312  2316      1
  2344  2312  2317      1
  2345  2312  2318      1
  2346  2319  2320      1
  2347  2319  2325      1
  2348  2319  2326      1
  2349  2320  2321      1
  2350  2320  2327      1
  2351  2320  2331      1
  2352  2321  2322      2
  2353  2321  2323      1
  2354  2323  2324      1
  2355  2324  2328      1
  2356  2324  2329      1
  2357  2324  2330      1
  2358  2331  2332      1
  2359  2331  2337      1
  2360  2331  2338      1
  2361  2332  2333      1
  2362  2332  2339      1
  2363  2332  2343      1
  2364  2333  2334      2
  2365  2333  2335      1
  2366  2335  2336      1
  2367  2336  2340      1
  2368  2336  2341      1
  2369  2336  2342      1
  2370  2343  2344      1
  2371  2343  2349      1
  2372  2343  2350      1
  2373  2344  2345      1
  2374  2344  2351      1
  2375  2344  2355      1
  2376  2345  2346      2
  2377  2345  2347      1
  2378  2347  2348      1
  2379  2348  2352      1
  2380  2348  2353      1
  2381  2348  2354      1
  2382  2355  2356      1
  2383  2355  2361      1
  2384  2355  2362      1
  2385  2356  2357      1
  2386  2356  2363      1
  2387  2356  2367      1
  2388  2357  2358      2
  2389  2357  2359      1
  2390  2359  2360      1
  2391  2360  2364      1
  2392  2360  2365      1
  2393  2360  2366      1
  2394  2367  2368      1
  2395  2367  2373      1
  2396  2367  2374      1
  2397  2368  2369      1
  2398  2368  2375      1
  2399  2368  2379      1
  2400  2369  2370      2
  2401  2369  2371      1
  2402  2371  2372      1
  2403  2372  2376      1
  2404  2372  2377      1
  2405  2372  2378      1
  2406  2379  2380      1
  2407  2379  2385      1
  2408  2379  2386      1
  2409  2380  2381      1
  2410  2380  2387      1
  2411  2380  2391      1
  2412  2381  2382      2
  2413  2381  2383      1
  2414  2383  2384      1
  2415  2384  2388      1
  2416  2384  2389      1
  2417  2384  2390      1
  2418  2391  2392      1
  2419  2391  2397      1
  2420  2391  2398      1
  2421  2392  2393      1
  2422  2392  2399      1
  2423  2392  2403      1
  2424  2393  2394      2
  2425  2393  2395      1
  2426  2395  2396      1
  2427  2396  2400      1
  2428  2396  2401      1
  2429  2396  2402      1
  2430  2403  2404      1
  2431  2403  2409      1
  2432  2403  2410      1
  2433  2404  2405      1
  2434  2404  2411      1
  2435  2404  2415      1
  2436  2405  2406      2
  2437  2405  2407      1
  2438  2407  2408      1
  2439  2408  2412      1
  2440  2408  2413      1
  2441  2408  2414      1
  2442  2415  2416      1
  2443  2415  2421      1
  2444  2415  2422      1
  2445  2416  2417      1
  2446  2416  2423      1
  2447  2416  2427      1
  2448  2417  2418      2
  2449  2417  2419      1
  2450  2419  2420      1
  2451  2420  2424      1
  2452  2420  2425      1
  2453  2420  2426      1
  2454  2427  2428      1
  2455  2427  2433      1
  2456  2427  2434      1
  2457  2428  2429      1
  2458  2428  2435      1
  2459  2428  2439      1
  2460  2429  2430      2
  2461  2429  2431      1
  2462  2431  2432      1
  2463  2432  2436      1
  2464  2432  2437      1
  2465  2432  2438      1
  2466  2439  2440      1
  2467  2439  2445      1
  2468  2439  2446      1
  2469  2440  2441      1
  2470  2440  2447      1
  2471  2440  2451      1
  2472  2441  2442      2
  2473  2441  2443      1
  2474  2443  2444      1
  2475  2444  2448      1
  2476  2444  2449      1
  2477  2444  2450      1
  2478  2451  2452      1
  2479  2451  2457      1
  2480  2451  2458      1
  2481  2452  2453      1
  2482  2452  2459      1
  2483  2452  2463      1
  2484  2453  2454      2
  2485  2453  2455      1
  2486  2455  2456      1
  2487  2456  2460      1
  2488  2456  2461      1
  2489  2456  2462      1
  2490  2463  2464      1
  2491  2463  2469      1
  2492  2463  2470      1
  2493  2464  2465      1
  2494  2464  2471      1
  2495  2464  2475      1
  2496  2465  2466      2
  2497  2465  2467      1
  2498  2467  2468      1
  2499  2468  2472      1
  2500  2468  2473      1
  2501  2468  2474      1
  2502  2475  2476      1
  2503  2475  2481      1
  2504  2475  2482      1
  2505  2476  2477      1
  2506  2476  2483      1
  2507  2476  2487      1
  2508  2477  2478      2
  2509  2477  2479      1
  2510  2479  2480      1
  2511  2480  2484      1
  2512  2480  2485      1
  2513  2480  2486      1
  2514  2487  2488      1
  2515  2487  2493      1
  2516  2487  2494      1
  2517  2488  2489      1
  2518  2488  2495      1
  2519  2488  2499      1
  2520  2489  2490      2
  2521  2489  2491      1
  2522  2491  2492      1
  2523  2492  2496      1
  2524  2492  2497      1
  2525  2492  2498      1
  2526  2499  2500      1
  2527  2499  2505      1
  2528  2499  2506      1
  2529  2500  2501      1
  2530  2500  2507      1
  2531  2500  2511      1
  2532  2501  2502      2
  2533  2501  2503      1
  2534  2503  2504      1
  2535  2504  2508      1
  2536  2504  2509      1
  2537  2504  2510      1
  2538  2511  2512      1
  2539  2511  2517      1
  2540  2511  2518      1
  2541  2512  2513      1
  2542  2512  2519      1
  2543  2513  2514      2
  2544  2513  2515      1
  2545  2515  2516      1
  2546  2516  2520      1
  2547  2516  2521      1
  2548  2516  2522      1
  2549  2523  2524      1
  2550  2523  2529      1
  2551  2523  2530      1
  2552  2524  2525      1
  2553  2524  2531      1
  2554  2524  2535      1
  2555  2525  2526      2
  2556  2525  2527      1
  2557  2527  2528      1
  2558  2528  2532      1
  2559  2528  2533      1
  2560  2528  2534      1
  2561  2535  2536      1
  2562  2535  2541      1
  2563  2535  2542      1
  2564  2536  2537      1
  2565  2536  2543      1
  2566  2536  2547      1
  2567  2537  2538      2
  2568  2537  2539      1
  2569  2539  2540      1
  2570  2540  2544      1
  2571  2540  2545      1
  2572  2540  2546      1
  2573  2547  2548      1
  2574  2547  2553      1
  2575  2547  2554      1
  2576  2548  2549      1
  2577  2548  2555      1
  2578  2548  2559      1
  2579  2549  2550      2
  2580  2549  2551      1
  2581  2551  2552      1
  2582  2552  2556      1
  2583  2552  2557      1
  2584  2552  2558      1
  2585  2559  2560      1
  2586  2559  2565      1
  2587  2559  2566      1
  2588  2560  2561      1
  2589  2560  2567      1
  2590  2560  2571      1
  2591  2561  2562      2
  2592  2561  2563      1
  2593  2563  2564      1
  2594  2564  2568      1
  2595  2564  2569      1
  2596  2564  2570      1
  2597  2571  2572      1
  2598  2571  2577      1
  2599  2571  2578      1
  2600  2572  2573      1
  2601  2572  2579      1
  2602  2572  2583      1
  2603  2573  2574      2
  2604  2573  2575      1
  2605  2575  2576      1
  2606  2576  2580      1
  2607  2576  2581      1
  2608  2576  2582      1
  2609  2583  2584      1
  2610  2583  2589      1
  2611  2583  2590      1
  2612  2584  2585      1
  2613  2584  2591      1
  2614  2584  2595      1
  2615  2585  2586      2
  2616  2585  2587      1
  2617  2587  2588      1
  2618  2588  2592      1
  2619  2588  2593      1
  2620  2588  2594      1
  2621  2595  2596      1
  2622  2595  2601      1
  2623  2595  2602      1
  2624  2596  2597      1
  2625  2596  2603      1
  2626  2596  2607      1
  2627  2597  2598      2
  2628  2597  2599      1
  2629  2599  2600      1
  2630  2600  2604      1
  2631  2600  2605      1
  2632  2600  2606      1
  2633  2607  2608      1
  2634  2607  2613      1
  2635  2607  2614      1
  2636  2608  2609      1
  2637  2608  2615      1
  2638  2608  2619      1
  2639  2609  2610      2
  2640  2609  2611      1
  2641  2611  2612      1
  2642  2612  2616      1
  2643  2612  2617      1
  2644  2612  2618      1
  2645  2619  2620      1
  2646  2619  2625      1
  2647  2619  2626      1
  2648  2620  2621      1
  2649  2620  2627      1
  2650  2620  2631      1
  2651  2621  2622      2
  2652  2621  2623      1
  2653  2623  2624      1
  2654  2624  2628      1
  2655  2624  2629      1
  2656  2624  2630      1
  2657  2631  2632      1
  2658  2631  2637      1
  2659  2631  2638      1
  2660  2632  2633      1
  2661  2632  2639      1
  2662  2632  2643      1
  2663  2633  2634      2
  2664  2633  2635      1
  2665  2635  2636      1
  2666  2636  2640      1
  2667  2636  2641      1
  2668  2636  2642      1
  2669  2643  2644      1
  2670  2643  2649      1
  2671  2643  2650      1
  2672  2644  2645      1
  2673  2644  2651      1
  2674  2644  2655      1
  2675  2645  2646      2
  2676  2645  2647      1
  2677  2647  2648      1
  2678  2648  2652      1
  2679  2648  2653      1
  2680  2648  2654      1
  2681  2655  2656      1
  2682  2655  2661      1
  2683  2655  2662      1
  2684  2656  2657      1
  2685  2656  2663      1
  2686  2656  2667      1
  2687  2657  2658      2
  2688  2657  2659      1
  2689  2659  2660      1
  2690  2660  2664      1
  2691  2660  2665      1
  2692  2660  2666      1
  2693  2667  2668      1
  2694  2667  2673      1
  2695  2667  2674      1
  2696  2668  2669      1
  2697  2668  2675      1
  2698  2668  2679      1
  2699  2669  2670      2
  2700  2669  2671      1
  2701  2671  2672      1
  2702  2672  2676      1
  2703  2672  2677      1
  2704  2672  2678      1
  2705  2679  2680      1
  2706  2679  2685      1
  2707  2679  2686      1
  2708  2680  2681      1
  2709  2680  2687      1
  2710  2680  2691      1
  2711  2681  2682      2
  2712  2681  2683      1
  2713  2683  2684      1
  2714  2684  2688      1
  2715  2684  2689      1
  2716  2684  2690      1
  2717  2691  2692      1
  2718  2691  2697      1
  2719  2691  2698      1
  2720  2692  2693      1
  2721  2692  2699      1
  2722  2692  2703      1
  2723  2693  2694      2
  2724  2693  2695      1
  2725  2695  2696      1
  2726  2696  2700      1
  2727  2696  2701      1
  2728  2696  2702      1
  2729  2703  2704      1
  2730  2703  2709      1
  2731  2703  2710      1
  2732  2704  2705      1
  2733  2704  2711      1
  2734  2704  2715      1
  2735  2705  2706      2
  2736  2705  2707      1
  2737  2707  2708      1
  2738  2708  2712      1
  2739  2708  2713      1
  2740  2708  2714      1
  2741  2715  2716      1
  2742  2715  2721      1
  2743  2715  2722      1
  2744  2716  2717      1
  2745  2716  2723      1
  2746  2716  2727      1
  2747  2717  2718      2
  2748  2717  2719      1
  2749  2719  2720      1
  2750  2720  2724      1
  2751  2720  2725      1
  2752  2720  2726      1
  2753  2727  2728      1
  2754  2727  2733      1
  2755  2727  2734      1
  2756  2728  2729      1
  2757  2728  2735      1
  2758  2729  2730      2
  2759  2729  2731      1
  2760  2731  2732      1
  2761  2732  2736      1
  2762  2732  2737      1
  2763  2732  2738      1
  2764  2739  2740      1
  2765  2739  2745      1
  2766  2739  2746      1
  2767  2740  2741      1
  2768  2740  2747      1
  2769  2740  2751      1
  2770  2741  2742      2
  2771  2741  2743      1
  2772  2743  2744      1
  2773  2744  2748      1
  2774  2744  2749      1
  2775  2744  2750      1
  2776  2751  2752      1
  2777  2751  2757      1
  2778  2751  2758      1
  2779  2752  2753      1
  2780  2752  2759      1
  2781  2752  2763      1
  2782  2753  2754      2
  2783  2753  2755      1
  2784  2755  2756      1
  2785  2756  2760      1
  2786  2756  2761      1
  2787  2756  2762      1
  2788  2763  2764      1
  2789  2763  2769      1
  2790  2763  2770      1
  2791  2764  2765      1
  2792  2764  2771      1
  2793  2764  2775      1
  2794  2765  2766      2
  2795  2765  2767      1
  2796  2767  2768      1
  2797  2768  2772      1
  2798  2768  2773      1
  2799  2768  2774      1
  2800  2775  2776      1
  2801  2775  2781      1
  2802  2775  2782      1
  2803  2776  2777      1
  2804  2776  2783      1
  2805  2776  2787      1
  2806  2777  2778      2
  2807  2777  2779      1
  2808  2779  2780      1
  2809  2780  2784      1
  2810  2780  2785      1
  2811  2780  2786      1
  2812  2787  2788      1
  2813  2787  2793      1
  2814  2787  2794      1
  2815  2788  2789      1
  2816  2788  2795      1
  2817  2788  2799      1
  2818  2789  2790      2
  2819  2789  2791      1
  2820  2791  2792      1
  2821  2792  2796      1
  2822  2792  2797      1
  2823  2792  2798      1
  2824  2799  2800      1
  2825  2799  2805      1
  2826  2799  2806      1
  2827  2800  2801      1
  2828  2800  2807      1
  2829  2800  2811      1
  2830  2801  2802      2
  2831  2801  2803      1
  2832  2803  2804      1
  2833  2804  2808      1
  2834  2804  2809      1
  2835  2804  2810      1
  2836  2811  2812      1
  2837  2811  2817      1
  2838  2811  2818      1
  2839  2812  2813      1
  2840  2812  2819      1
  2841  2812  2823      1
  2842  2813  2814      2
  2843  2813  2815      1
  2844  2815  2816      1
  2845  2816  2820      1
  2846  2816  2821      1
  2847  2816  2822      1
  2848  2823  2824      1
  2849  2823  2829      1
  2850  2823  2830      1
  2851  2824  2825      1
  2852  2824  2831      1
  2853  2824  2835      1
  2854  2825  2826      2
  2855  2825  2827      1
  2856  2827  2828      1
  2857  2828  2832      1
  2858  2828  2833      1
  2859  2828  2834      1
  2860  2835  2836      1
  2861  2835  2841      1
  2862  2835  2842      1
  2863  2836  2837      1
  2864  2836  2843      1
  2865  2836  2847      1
  2866  2837  2838      2
  2867  2837  2839      1
  2868  2839  2840      1
  2869  2840  2844      1
  2870  2840  2845      1
  2871  2840  2846      1
  2872  2847  2848      1
  2873  2847  2853      1
  2874  2847  2854      1
  2875  2848  2849      1
  2876  2848  2855      1
  2877  2848  2859      1
  2878  2849  2850      2
  2879  2849  2851      1
  2880  2851  2852      1
  2881  2852  2856      1
  2882  2852  2857      1
  2883  2852  2858      1
  2884  2859  2860      1
  2885  2859  2865      1
  2886  2859  2866      1
  2887  2860  2861      1
  2888  2860  2867      1
  2889  2860  2871      1
  2890  2861  2862      2
  2891  2861  2863      1
  2892  2863  2864      1
  2893  2864  2868      1
  2894  2864  2869      1
  2895  2864  2870      1
  2896  2871  2872      1
  2897  2871  2877      1
  2898  2871  2878      1
  2899  2872  2873      1
  2900  2872  2879      1
  2901  2872  2883      1
  2902  2873  2874      2
  2903  2873  2875      1
  2904  2875  2876      1
  2905  2876  2880      1
  2906  2876  2881      1
  2907  2876  2882      1
  2908  2883  2884      1
  2909  2883  2889      1
  2910  2883  2890      1
  2911  2884  2885      1
  2912  2884  2891      1
  2913  2885  2886      2
  2914  2885  2887      1
  2915  2887  2888      1
  2916  2888  2892      1
  2917  2888  2893      1
  2918  2888  2894      1
  2919  2895  2896      1
  2920  2895  2901      1
  2921  2895  2902      1
  2922  2896  2897      1
  2923  2896  2903      1
  2924  2896  2907      1
  2925  2897  2898      2
  2926  2897  2899      1
  2927  2899  2900      1
  2928  2900  2904      1
  2929  2900  2905      1
  2930  2900  2906      1
  2931  2907  2908      1
  2932  2907  2913      1
  2933  2907  2914      1
  2934  2908  2909      1
  2935  2908  2915      1
  2936  2908  2919      1
  2937  2909  2910      2
  2938  2909  2911      1
  2939  2911  2912      1
  2940  2912  2916      1
  2941  2912  2917      1
  2942  2912  2918      1
  2943  2919  2920      1
  2944  2919  2925      1
  2945  2919  2926      1
  2946  2920  2921      1
  2947  2920  2927      1
  2948  2920  2931      1
  2949  2921  2922      2
  2950  2921  2923      1
  2951  2923  2924      1
  2952  2924  2928      1
  2953  2924  2929      1
  2954  2924  2930      1
  2955  2931  2932      1
  2956  2931  2937      1
  2957  2931  2938      1
  2958  2932  2933      1
  2959  2932  2939      1
  2960  2932  2943      1
  2961  2933  2934      2
  2962  2933  2935      1
  2963  2935  2936      1
  2964  2936  2940      1
  2965  2936  2941      1
  2966  2936  2942      1
  2967  2943  2944      1
  2968  2943  2949      1
  2969  2943  2950      1
  2970  2944  2945      1
  2971  2944  2951      1
  2972  2944  2955      1
  2973  2945  2946      2
  2974  2945  2947      1
  2975  2947  2948      1
  2976  2948  2952      1
  2977  2948  2953      1
  2978  2948  2954      1
  2979  2955  2956      1
  2980  2955  2961      1
  2981  2955  2962      1
  2982  2956  2957      1
  2983  2956  2963      1
  2984  2956  2967      1
  2985  2957  2958      2
  2986  2957  2959      1
  2987  2959  2960      1
  2988  2960  2964      1
  2989  2960  2965      1
  2990  2960  2966      1
  2991  2967  2968      1
  2992  2967  2973      1
  2993  2967  2974      1
  2994  2968  2969      1
  2995  2968  2975      1
  2996  2968  2979      1
  2997  2969  2970      2
  2998  2969  2971      1
  2999  2971  2972      1
  3000  2972  2976      1
  3001  2972  2977      1
  3002  2972  2978      1
  3003  2979  2980      1
  3004  2979  2985      1
  3005  2979  2986      1
  3006  2980  2981      1
  3007  2980  2987      1
  3008  2980  2991      1
  3009  2981  2982      2
  3010  2981  2983      1
  3011  2983  2984      1
  3012  2984  2988      1
  3013  2984  2989      1
  3014  2984  2990      1
  3015  2991  2992      1
  3016  2991  2997      1
  3017  2991  2998      1
  3018  2992  2993      1
  3019  2992  2999      1
  3020  2992  3003      1
  3021  2993  2994      2
  3022  2993  2995      1
  3023  2995  2996      1
  3024  2996  3000      1
  3025  2996  3001      1
  3026  2996  3002      1
  3027  3003  3004      1
  3028  3003  3009      1
  3029  3003  3010      1
  3030  3004  3005      1
  3031  3004  3011      1
  3032  3004  3015      1
  3033  3005  3006      2
  3034  3005  3007      1
  3035  3007  3008      1
  3036  3008  3012      1
  3037  3008  3013      1
  3038  3008  3014      1
  3039  3015  3016      1
  3040  3015  3021      1
  3041  3015  3022      1
  3042  3016  3017      1
  3043  3016  3023      1
  3044  3016  3027      1
  3045  3017  3018      2
  3046  3017  3019      1
  3047  3019  3020      1
  3048  3020  3024      1
  3049  3020  3025      1
  3050  3020  3026      1
  3051  3027  3028      1
  3052  3027  3033      1
  3053  3027  3034      1
  3054  3028  3029      1
  3055  3028  3035      1
  3056  3028  3039      1
  3057  3029  3030      2
  3058  3029  3031      1
  3059  3031  3032      1
  3060  3032  3036      1
  3061  3032  3037      1
  3062  3032  3038      1
  3063  3039  3040      1
  3064  3039  3045      1
  3065  3039  3046      1
  3066  3040  3041      1
  3067  3040  3047      1
  3068  3040  3051      1
  3069  3041  3042      2
  3070  3041  3043      1
  3071  3043  3044      1
  3072  3044  3048      1
  3073  3044  3049      1
  3074  3044  3050      1
  3075  3051  3052      1
  3076  3051  3057      1
  3077  3051  3058      1
  3078  3052  3053      1
  3079  3052  3059      1
  3080  3052  3063      1
  3081  3053  3054      2
  3082  3053  3055      1
  3083  3055  3056      1
  3084  3056  3060      1
  3085  3056  3061      1
  3086  3056  3062      1
  3087  3063  3064      1
  3088  3063  3069      1
  3089  3063  3070      1
  3090  3064  3065      1
  3091  3064  3071      1
  3092  3064  3075      1
  3093  3065  3066      2
  3094  3065  3067      1
  3095  3067  3068      1
  3096  3068  3072      1
  3097  3068  3073      1
  3098  3068  3074      1
  3099  3075  3076      1
  3100  3075  3081      1
  3101  3075  3082      1
  3102  3076  3077      1
  3103  3076  3083      1
  3104  3076  3087      1
  3105  3077  3078      2
  3106  3077  3079      1
  3107  3079  3080      1
  3108  3080  3084      1
  3109  3080  3085      1
  3110  3080  3086      1
  3111  3087  3088      1
  3112  3087  3093      1
  3113  3087  3094      1
  3114  3088  3089      1
  3115  3088  3095      1
  3116  3088  3099      1
  3117  3089  3090      2
  3118  3089  3091      1
  3119  3091  3092      1
  3120  3092  3096      1
  3121  3092  3097      1
  3122  3092  3098      1
  3123  3099  3100      1
  3124  3099  3105      1
  3125  3099  3106      1
  3126  3100  3101      1
  3127  3100  3107      1
  3128  3100  3111      1
  3129  3101  3102      2
  3130  3101  3103      1
  3131  3103  3104      1
  3132  3104  3108      1
  3133  3104  3109      1
  3134  3104  3110      1
  3135  3111  3112      1
  3136  3111  3117      1
  3137  3111  3118      1
  3138  3112  3113      1
  3139  3112  3119      1
  3140  3112  3123      1
  3141  3113  3114      2
  3142  3113  3115      1
  3143  3115  3116      1
  3144  3116  3120      1
  3145  3116  3121      1
  3146  3116  3122      1
  3147  3123  3124      1
  3148  3123  3129      1
  3149  3123  3130      1
  3150  3124  3125      1
  3151  3124  3131      1
  3152  3124  3135      1
  3153  3125  3126      2
  3154  3125  3127      1
  3155  3127  3128      1
  3156  3128  3132      1
  3157  3128  3133      1
  3158  3128  3134      1
  3159  3135  3136      1
  3160  3135  3141      1
  3161  3135  3142      1
  3162  3136  3137      1
  3163  3136  3143      1
  3164  3136  3147      1
  3165  3137  3138      2
  3166  3137  3139      1
  3167  3139  3140      1
  3168  3140  3144      1
  3169  3140  3145      1
  3170  3140  3146      1
  3171  3147  3148      1
  3172  3147  3153      1
  3173  3147  3154      1
  3174  3148  3149      1
  3175  3148  3155      1
  3176  3148  3159      1
  3177  3149  3150      2
  3178  3149  3151      1
  3179  3151  3152      1
  3180  3152  3156      1
  3181  3152  3157      1
  3182  3152  3158      1
  3183  3159  3160      1
  3184  3159  3165      1
  3185  3159  3166      1
  3186  3160  3161      1
  3187  3160  3167      1
  3188  3161  3162      2
  3189  3161  3163      1
  3190  3163  3164      1
  3191  3164  3168      1
  3192  3164  3169      1
  3193  3164  3170      1
  3194  3171  3172      1
  3195  3171  3177      1
  3196  3171  3178      1
  3197  3172  3173      1
  3198  3172  3179      1
  3199  3172  3183      1
  3200  3173  3174      2
  3201  3173  3175      1
  3202  3175  3176      1
  3203  3176  3180      1
  3204  3176  3181      1
  3205  3176  3182      1
  3206  3183  3184      1
  3207  3183  3189      1
  3208  3183  3190      1
  3209  3184  3185      1
  3210  3184  3191      1
  3211  3184  3195      1
  3212  3185  3186      2
  3213  3185  3187      1
  3214  3187  3188      1
  3215  3188  3192      1
  3216  3188  3193      1
  3217  3188  3194      1
  3218  3195  3196      1
  3219  3195  3201      1
  3220  3195  3202      1
  3221  3196  3197      1
  3222  3196  3203      1
  3223  3196  3207      1
  3224  3197  3198      2
  3225  3197  3199      1
  3226  3199  3200      1
  3227  3200  3204      1
  3228  3200  3205      1
  3229  3200  3206      1
  3230  3207  3208      1
  3231  3207  3213      1
  3232  3207  3214      1
  3233  3208  3209      1
  3234  3208  3215      1
  3235  3208  3219      1
  3236  3209  3210      2
  3237  3209  3211      1
  3238  3211  3212      1
  3239  3212  3216      1
  3240  3212  3217      1
  3241  3212  3218      1
  3242  3219  3220      1
  3243  3219  3225      1
  3244  3219  3226      1
  3245  3220  3221      1
  3246  3220  3227      1
  3247  3220  3231      1
  3248  3221  3222      2
  3249  3221  3223      1
  3250  3223  3224      1
  3251  3224  3228      1
  3252  3224  3229      1
  3253  3224  3230      1
  3254  3231  3232      1
  3255  3231  3237      1
  3256  3231  3238      1
  3257  3232  3233      1
  3258  3232  3239      1
  3259  3232  3243      1
  3260  3233  3234      2
  3261  3233  3235      1
  3262  3235  3236      1
  3263  3236  3240      1
  3264  3236  3241      1
  3265  3236  3242      1
  3266  3243  3244      1
  3267  3243  3249      1
  3268  3243  3250      1
  3269  3244  3245      1
  3270  3244  3251      1
  3271  3244  3255      1
  3272  3245  3246      2
  3273  3245  3247      1
  3274  3247  3248      1
  3275  3248  3252      1
  3276  3248  3253      1
  3277  3248  3254      1
  3278  3255  3256      1
  3279  3255  3261      1
  3280  3255  3262      1
  3281  3256  3257      1
  3282  3256  3263      1
  3283  3256  3267      1
  3284  3257  3258      2
  3285  3257  3259      1
  3286  3259  3260      1
  3287  3260  3264      1
  3288  3260  3265      1
  3289  3260  3266      1
  3290  3267  3268      1
  3291  3267  3273      1
  3292  3267  3274      1
  3293  3268  3269      1
  3294  3268  3275      1
  3295  3268  3279      1
  3296  3269  3270      2
  3297  3269  3271      1
  3298  3271  3272      1
  3299  3272  3276      1
  3300  3272  3277      1
  3301  3272  3278      1
  3302  3279  3280      1
  3303  3279  3285      1
  3304  3279  3286      1
  3305  3280  3281      1
  3306  3280  3287      1
  3307  3280  3291      1
  3308  3281  3282      2
  3309  3281  3283      1
  3310  3283  3284      1
  3311  3284  3288      1
  3312  3284  3289      1
  3313  3284  3290      1
  3314  3291  3292      1
  3315  3291  3297      1
  3316  3291  3298      1
  3317  3292  3293      1
  3318  3292  3299      1
  3319  3292  3303      1
  3320  3293  3294      2
  3321  3293  3295      1
  3322  3295  3296      1
  3323  3296  3300      1
  3324  3296  3301      1
  3325  3296  3302      1
  3326  3303  3304      1
  3327  3303  3309      1
  3328  3303  3310      1
  3329  3304  3305      1
  3330  3304  3311      1
  3331  3304  3315      1
  3332  3305  3306      2
  3333  3305  3307      1
  3334  3307  3308      1
  3335  3308  3312      1
  3336  3308  3313      1
  3337  3308  3314      1
  3338  3315  3316      1
  3339  3315  3321      1
  3340  3315  3322      1
  3341  3316  3317      1
  3342  3316  3323      1
  3343  3316  3327      1
  3344  3317  3318      2
  3345  3317  3319      1
  3346  3319  3320      1
  3347  3320  3324      1
  3348  3320  3325      1
  3349  3320  3326      1
  3350  3327  3328      1
  3351  3327  3333      1
  3352  3327  3334      1
  3353  3328  3329      1
  3354  3328  3335      1
  3355  3328  3339      1
  3356  3329  3330      2
  3357  3329  3331      1
  3358  3331  3332      1
  3359  3332  3336      1
  3360  3332  3337      1
  3361  3332  3338      1
  3362  3339  3340      1
  3363  3339  3345      1
  3364  3339  3346      1
  3365  3340  3341      1
  3366  3340  3347      1
  3367  3340  3351      1
  3368  3341  3342      2
  3369  3341  3343      1
  3370  3343  3344      1
  3371  3344  3348      1
  3372  3344  3349      1
  3373  3344  3350      1
  3374  3351  3352      1
  3375  3351  3357      1
  3376  3351  3358      1
  3377  3352  3353      1
  3378  3352  3359      1
  3379  3352  3363      1
  3380  3353  3354      2
  3381  3353  3355      1
  3382  3355  3356      1
  3383  3356  3360      1
  3384  3356  3361      1
  3385  3356  3362      1
  3386  3363  3364      1
  3387  3363  3369      1
  3388  3363  3370      1
  3389  3364  3365      1
  3390  3364  3371      1
  3391  3364  3375      1
  3392  3365  3366      2
  3393  3365  3367      1
  3394  3367  3368      1
  3395  3368  3372      1
  3396  3368  3373      1
  3397  3368  3374      1
  3398  3375  3376      1
  3399  3375  3381      1
  3400  3375  3382      1
  3401  3376  3377      1
  3402  3376  3383      1
  3403  3376  3387      1
  3404  3377  3378      2
  3405  3377  3379      1
  3406  3379  3380      1
  3407  3380  3384      1
  3408  3380  3385      1
  3409  3380  3386      1
  3410  3387  3388      1
  3411  3387  3393      1
  3412  3387  3394      1
  3413  3388  3389      1
  3414  3388  3395      1
  3415  3388  3399      1
  3416  3389  3390      2
  3417  3389  3391      1
  3418  3391  3392      1
  3419  3392  3396      1
  3420  3392  3397      1
  3421  3392  3398      1
  3422  3399  3400      1
  3423  3399  3405      1
  3424  3399  3406      1
  3425  3400  3401      1
  3426  3400  3407      1
  3427  3400  3411      1
  3428  3401  3402      2
  3429  3401  3403      1
  3430  3403  3404      1
  3431  3404  3408      1
  3432  3404  3409      1
  3433  3404  3410      1
  3434  3411  3412      1
  3435  3411  3417      1
  3436  3411  3418      1
  3437  3412  3413      1
  3438  3412  3419      1
  3439  3412  3423      1
  3440  3413  3414      2
  3441  3413  3415      1
  3442  3415  3416      1
  3443  3416  3420      1
  3444  3416  3421      1
  3445  3416  3422      1
  3446  3423  3424      1
  3447  3423  3429      1
  3448  3423  3430      1
  3449  3424  3425      1
  3450  3424  3431      1
  3451  3424  3435      1
  3452  3425  3426      2
  3453  3425  3427      1
  3454  3427  3428      1
  3455  3428  3432      1
  3456  3428  3433      1
  3457  3428  3434      1
  3458  3435  3436      1
  3459  3435  3441      1
  3460  3435  3442      1
  3461  3436  3437      1
  3462  3436  3443      1
  3463  3436  3447      1
  3464  3437  3438      2
  3465  3437  3439      1
  3466  3439  3440      1
  3467  3440  3444      1
  3468  3440  3445      1
  3469  3440  3446      1
  3470  3447  3448      1
  3471  3447  3453      1
  3472  3447  3454      1
  3473  3448  3449      1
  3474  3448  3455      1
  3475  3448  3459      1
  3476  3449  3450      2
  3477  3449  3451      1
  3478  3451  3452      1
  3479  3452  3456      1
  3480  3452  3457      1
  3481  3452  3458      1
  3482  3459  3460      1
  3483  3459  3465      1
  3484  3459  3466      1
  3485  3460  3461      1
  3486  3460  3467      1
  3487  3460  3471      1
  3488  3461  3462      2
  3489  3461  3463      1
  3490  3463  3464      1
  3491  3464  3468      1
  3492  3464  3469      1
  3493  3464  3470      1
  3494  3471  3472      1
  3495  3471  3477      1
  3496  3471  3478      1
  3497  3472  3473      1
  3498  3472  3479      1
  3499  3472  3483      1
  3500  3473  3474      2
  3501  3473  3475      1
  3502  3475  3476      1
  3503  3476  3480      1
  3504  3476  3481      1
  3505  3476  3482      1
  3506  3483  3484      1
  3507  3483  3489      1
  3508  3483  3490      1
  3509  3484  3485      1
  3510  3484  3491      1
  3511  3484  3495      1
  3512  3485  3486      2
  3513  3485  3487      1
  3514  3487  3488      1
  3515  3488  3492      1
  3516  3488  3493      1
  3517  3488  3494      1
  3518  3495  3496      1
  3519  3495  3501      1
  3520  3495  3502      1
  3521  3496  3497      1
  3522  3496  3503      1
  3523  3496  3507      1
  3524  3497  3498      2
  3525  3497  3499      1
  3526  3499  3500      1
  3527  3500  3504      1
  3528  3500  3505      1
  3529  3500  3506      1
  3530  3507  3508      1
  3531  3507  3513      1
  3532  3507  3514      1
  3533  3508  3509      1
  3534  3508  3515      1
  3535  3508  3519      1
  3536  3509  3510      2
  3537  3509  3511      1
  3538  3511  3512      1
  3539  3512  3516      1
  3540  3512  3517      1
  3541  3512  3518      1
  3542  3519  3520      1
  3543  3519  3525      1
  3544  3519  3526      1
  3545  3520  3521      1
  3546  3520  3527      1
  3547  3520  3531      1
  3548  3521  3522      2
  3549  3521  3523      1
  3550  3523  3524      1
  3551  3524  3528      1
  3552  3524  3529      1
  3553  3524  3530      1
  3554  3531  3532      1
  3555  3531  3537      1
  3556  3531  3538      1
  3557  3532  3533      1
  3558  3532  3539      1
  3559  3532  3543      1
  3560  3533  3534      2
  3561  3533  3535      1
  3562  3535  3536      1
  3563  3536  3540      1
  3564  3536  3541      1
  3565  3536  3542      1
  3566  3543  3544      1
  3567  3543  3549      1
  3568  3543  3550      1
  3569  3544  3545      1
  3570  3544  3551      1
  3571  3544  3555      1
  3572  3545  3546      2
  3573  3545  3547      1
  3574  3547  3548      1
  3575  3548  3552      1
  3576  3548  3553      1
  3577  3548  3554      1
  3578  3555  3556      1
  3579  3555  3561      1
  3580  3555  3562      1
  3581  3556  3557      1
  3582  3556  3563      1
  3583  3556  3567      1
  3584  3557  3558      2
  3585  3557  3559      1
  3586  3559  3560      1
  3587  3560  3564      1
  3588  3560  3565      1
  3589  3560  3566      1
  3590  3567  3568      1
  3591  3567  3573      1
  3592  3567  3574      1
  3593  3568  3569      1
  3594  3568  3575      1
  3595  3568  3579      1
  3596  3569  3570      2
  3597  3569  3571      1
  3598  3571  3572      1
  3599  3572  3576      1
  3600  3572  3577      1
  3601  3572  3578      1
  3602  3579  3580      1
  3603  3579  3585      1
  3604  3579  3586      1
  3605  3580  3581      1
  3606  3580  3587      1
  3607  3580  3591      1
  3608  3581  3582      2
  3609  3581  3583      1
  3610  3583  3584      1
  3611  3584  3588      1
  3612  3584  3589      1
  3613  3584  3590      1
  3614  3591  3592      1
  3615  3591  3597      1
  3616  3591  3598      1
  3617  3592  3593      1
  3618  3592  3599      1
  3619  3592  3603      1
  3620  3593  3594      2
  3621  3593  3595      1
  3622  3595  3596      1
  3623  3596  3600      1
  3624  3596  3601      1
  3625  3596  3602      1
  3626  3603  3604      1
  3627  3603  3609      1
  3628  3603  3610      1
  3629  3604  3605      1
  3630  3604  3611      1
  3631  3604  3615      1
  3632  3605  3606      2
  3633  3605  3607      1
  3634  3607  3608      1
  3635  3608  3612      1
  3636  3608  3613      1
  3637  3608  3614      1
  3638  3615  3616      1
  3639  3615  3621      1
  3640  3615  3622      1
  3641  3616  3617      1
  3642  3616  3623      1
  3643  3616  3627      1
  3644  3617  3618      2
  3645  3617  3619      1
  3646  3619  3620      1
  3647  3620  3624      1
  3648  3620  3625      1
  3649  3620  3626      1
  3650  3627  3628      1
  3651  3627  3633      1
  3652  3627  3634      1
  3653  3628  3629      1
  3654  3628  3635      1
  3655  3628  3639      1
  3656  3629  3630      2
  3657  3629  3631      1
  3658  3631  3632      1
  3659  3632  3636      1
  3660  3632  3637      1
  3661  3632  3638      1
  3662  3639  3640      1
  3663  3639  3645      1
  3664  3639  3646      1
  3665  3640  3641      1
  3666  3640  3647      1
  3667  3640  3651      1
  3668  3641  3642      2
  3669  3641  3643      1
  3670  3643  3644      1
  3671  3644  3648      1
  3672  3644  3649      1
  3673  3644  3650      1
  3674  3651  3652      1
  3675  3651  3657      1
  3676  3651  3658      1
  3677  3652  3653      1
  3678  3652  3659      1
  3679  3652  3663      1
  3680  3653  3654      2
  3681  3653  3655      1
  3682  3655  3656      1
  3683  3656  3660      1
  3684  3656  3661      1
  3685  3656  3662      1
  3686  3663  3664      1
  3687  3663  3669      1
  3688  3663  3670      1
  3689  3664  3665      1
  3690  3664  3671      1
  3691  3664  3675      1
  3692  3665  3666      2
  3693  3665  3667      1
  3694  3667  3668      1
  3695  3668  3672      1
  3696  3668  3673      1
  3697  3668  3674      1
  3698  3675  3676      1
  3699  3675  3681      1
  3700  3675  3682      1
  3701  3676  3677      1
  3702  3676  3683      1
  3703  3677  3678      2
  3704  3677  3679      1
  3705  3679  3680      1
  3706  3680  3684      1
  3707  3680  3685      1
  3708  3680  3686      1
  3709  3687  3688      1
  3710  3687  3693      1
  3711  3687  3694      1
  3712  3688  3689      1
  3713  3688  3695      1
  3714  3688  3699      1
  3715  3689  3690      2
  3716  3689  3691      1
  3717  3691  3692      1
  3718  3692  3696      1
  3719  3692  3697      1
  3720  3692  3698      1
  3721  3699  3700      1
  3722  3699  3705      1
  3723  3699  3706      1
  3724  3700  3701      1
  3725  3700  3707      1
  3726  3700  3711      1
  3727  3701  3702      2
  3728  3701  3703      1
  3729  3703  3704      1
  3730  3704  3708      1
  3731  3704  3709      1
  3732  3704  3710      1
  3733  3711  3712      1
  3734  3711  3717      1
  3735  3711  3718      1
  3736  3712  3713      1
  3737  3712  3719      1
  3738  3712  3723      1
  3739  3713  3714      2
  3740  3713  3715      1
  3741  3715  3716      1
  3742  3716  3720      1
  3743  3716  3721      1
  3744  3716  3722      1
  3745  3723  3724      1
  3746  3723  3729      1
  3747  3723  3730      1
  3748  3724  3725      1
  3749  3724  3731      1
  3750  3724  3735      1
  3751  3725  3726      2
  3752  3725  3727      1
  3753  3727  3728      1
  3754  3728  3732      1
  3755  3728  3733      1
  3756  3728  3734      1
  3757  3735  3736      1
  3758  3735  3741      1
  3759  3735  3742      1
  3760  3736  3737      1
  3761  3736  3743      1
  3762  3736  3747      1
  3763  3737  3738      2
  3764  3737  3739      1
  3765  3739  3740      1
  3766  3740  3744      1
  3767  3740  3745      1
  3768  3740  3746      1
  3769  3747  3748      1
  3770  3747  3753      1
  3771  3747  3754      1
  3772  3748  3749      1
  3773  3748  3755      1
  3774  3748  3759      1
  3775  3749  3750      2
  3776  3749  3751      1
  3777  3751  3752      1
  3778  3752  3756      1
  3779  3752  3757      1
  3780  3752  3758      1
  3781  3759  3760      1
  3782  3759  3765      1
  3783  3759  3766      1
  3784  3760  3761      1
  3785  3760  3767      1
  3786  3760  3771      1
  3787  3761  3762      2
  3788  3761  3763      1
  3789  3763  3764      1
  3790  3764  3768      1
  3791  3764  3769      1
  3792  3764  3770      1
  3793  3771  3772      1
  3794  3771  3777      1
  3795  3771  3778      1
  3796  3772  3773      1
  3797  3772  3779      1
  3798  3772  3783      1
  3799  3773  3774      2
  3800  3773  3775      1
  3801  3775  3776      1
  3802  3776  3780      1
  3803  3776  3781      1
  3804  3776  3782      1
  3805  3783  3784      1
  3806  3783  3789      1
  3807  3783  3790      1
  3808  3784  3785      1
  3809  3784  3791      1
  3810  3784  3795      1
  3811  3785  3786      2
  3812  3785  3787      1
  3813  3787  3788      1
  3814  3788  3792      1
  3815  3788  3793      1
  3816  3788  3794      1
  3817  3795  3796      1
  3818  3795  3801      1
  3819  3795  3802      1
  3820  3796  3797      1
  3821  3796  3803      1
  3822  3796  3807      1
  3823  3797  3798      2
  3824  3797  3799      1
  3825  3799  3800      1
  3826  3800  3804      1
  3827  3800  3805      1
  3828  3800  3806      1
  3829  3807  3808      1
  3830  3807  3813      1
  3831  3807  3814      1
  3832  3808  3809      1
  3833  3808  3815      1
  3834  3808  3819      1
  3835  3809  3810      2
  3836  3809  3811      1
  3837  3811  3812      1
  3838  3812  3816      1
  3839  3812  3817      1
  3840  3812  3818      1
  3841  3819  3820      1
  3842  3819  3825      1
  3843  3819  3826      1
  3844  3820  3821      1
  3845  3820  3827      1
  3846  3820  3831      1
  3847  3821  3822      2
  3848  3821  3823      1
  3849  3823  3824      1
  3850  3824  3828      1
  3851  3824  3829      1
  3852  3824  3830      1
  3853  3831  3832      1
  3854  3831  3837      1
  3855  3831  3838      1
  3856  3832  3833      1
  3857  3832  3839      1
  3858  3832  3843      1
  3859  3833  3834      2
  3860  3833  3835      1
  3861  3835  3836      1
  3862  3836  3840      1
  3863  3836  3841      1
  3864  3836  3842      1
  3865  3843  3844      1
  3866  3843  3849      1
  3867  3843  3850      1
  3868  3844  3845      1
  3869  3844  3851      1
  3870  3844  3855      1
  3871  3845  3846      2
  3872  3845  3847      1
  3873  3847  3848      1
  3874  3848  3852      1
  3875  3848  3853      1
  3876  3848  3854      1
  3877  3855  3856      1
  3878  3855  3861      1
  3879  3855  3862      1
  3880  3856  3857      1
  3881  3856  3863      1
  3882  3856  3867      1
  3883  3857  3858      2
  3884  3857  3859      1
  3885  3859  3860      1
  3886  3860  3864      1
  3887  3860  3865      1
  3888  3860  3866      1
  3889  3867  3868      1
  3890  3867  3873      1
  3891  3867  3874      1
  3892  3868  3869      1
  3893  3868  3875      1
  3894  3868  3879      1
  3895  3869  3870      2
  3896  3869  3871      1
  3897  3871  3872      1
  3898  3872  3876      1
  3899  3872  3877      1
  3900  3872  3878      1
  3901  3879  3880      1
  3902  3879  3885      1
  3903  3879  3886      1
  3904  3880  3881      1
  3905  3880  3887      1
  3906  3880  3891      1
  3907  3881  3882      2
  3908  3881  3883      1
  3909  3883  3884      1
  3910  3884  3888      1
  3911  3884  3889      1
  3912  3884  3890      1
  3913  3891  3892      1
  3914  3891  3897      1
  3915  3891  3898      1
  3916  3892  3893      1
  3917  3892  3899      1
  3918  3892  3903      1
  3919  3893  3894      2
  3920  3893  3895      1
  3921  3895  3896      1
  3922  3896  3900      1
  3923  3896  3901      1
  3924  3896  3902      1
  3925  3903  3904      1
  3926  3903  3909      1
  3927  3903  3910      1
  3928  3904  3905      1
  3929  3904  3911      1
  3930  3904  3915      1
  3931  3905  3906      2
  3932  3905  3907      1
  3933  3907  3908      1
  3934  3908  3912      1
  3935  3908  3913      1
  3936  3908  3914      1
  3937  3915  3916      1
  3938  3915  3921      1
  3939  3915  3922      1
  3940  3916  3917      1
  3941  3916  3923      1
  3942  3916  3927      1
  3943  3917  3918      2
  3944  3917  3919      1
  3945  3919  3920      1
  3946  3920  3924      1
  3947  3920  3925      1
  3948  3920  3926      1
  3949  3927  3928      1
  3950  3927  3933      1
  3951  3927  3934      1
  3952  3928  3929      1
  3953  3928  3935      1
  3954  3928  3939      1
  3955  3929  3930      2
  3956  3929  3931      1
  3957  3931  3932      1
  3958  3932  3936      1
  3959  3932  3937      1
  3960  3932  3938      1
  3961  3939  3940      1
  3962  3939  3945      1
  3963  3939  3946      1
  3964  3940  3941      1
  3965  3940  3947      1
  3966  3940  3951      1
  3967  3941  3942      2
  3968  3941  3943      1
  3969  3943  3944      1
  3970  3944  3948      1
  3971  3944  3949      1
  3972  3944  3950      1
  3973  3951  3952      1
  3974  3951  3957      1
  3975  3951  3958      1
  3976  3952  3953      1
  3977  3952  3959      1
  3978  3952  3963      1
  3979  3953  3954      2
  3980  3953  3955      1
  3981  3955  3956      1
  3982  3956  3960      1
  3983  3956  3961      1
  3984  3956  3962      1
  3985  3963  3964      1
  3986  3963  3969      1
  3987  3963  3970      1
  3988  3964  3965      1
  3989  3964  3971      1
  3990  3964  3975      1
  3991  3965  3966      2
  3992  3965  3967      1
  3993  3967  3968      1
  3994  3968  3972      1
  3995  3968  3973      1
  3996  3968  3974      1
  3997  3975  3976      1
  3998  3975  3981      1
  3999  3975  3982      1
  4000  3976  3977      1
  4001  3976  3983      1
  4002  3976  3987      1
  4003  3977  3978      2
  4004  3977  3979      1
  4005  3979  3980      1
  4006  3980  3984      1
  4007  3980  3985      1
  4008  3980  3986      1
  4009  3987  3988      1
  4010  3987  3993      1
  4011  3987  3994      1
  4012  3988  3989      1
  4013  3988  3995      1
  4014  3988  3999      1
  4015  3989  3990      2
  4016  3989  3991      1
  4017  3991  3992      1
  4018  3992  3996      1
  4019  3992  3997      1
  4020  3992  3998      1
  4021  3999  4000      1
  4022  3999  4005      1
  4023  3999  4006      1
  4024  4000  4001      1
  4025  4000  4007      1
  4026  4000  4011      1
  4027  4001  4002      2
  4028  4001  4003      1
  4029  4003  4004      1
  4030  4004  4008      1
  4031  4004  4009      1
  4032  4004  4010      1
  4033  4011  4012      1
  4034  4011  4017      1
  4035  4011  4018      1
  4036  4012  4013      1
  4037  4012  4019      1
  4038  4012  4023      1
  4039  4013  4014      2
  4040  4013  4015      1
  4041  4015  4016      1
  4042  4016  4020      1
  4043  4016  4021      1
  4044  4016  4022      1
  4045  4023  4024      1
  4046  4023  4029      1
  4047  4023  4030      1
  4048  4024  4025      1
  4049  4024  4031      1
  4050  4024  4035      1
  4051  4025  4026      2
  4052  4025  4027      1
  4053  4027  4028      1
  4054  4028  4032      1
  4055  4028  4033      1
  4056  4028  4034      1
  4057  4035  4036      1
  4058  4035  4041      1
  4059  4035  4042      1
  4060  4036  4037      1
  4061  4036  4043      1
  4062  4036  4047      1
  4063  4037  4038      2
  4064  4037  4039      1
  4065  4039  4040      1
  4066  4040  4044      1
  4067  4040  4045      1
  4068  4040  4046      1
  4069  4047  4048      1
  4070  4047  4053      1
  4071  4047  4054      1
  4072  4048  4049      1
  4073  4048  4055      1
  4074  4048  4059      1
  4075  4049  4050      2
  4076  4049  4051      1
  4077  4051  4052      1
  4078  4052  4056      1
  4079  4052  4057      1
  4080  4052  4058      1
  4081  4059  4060      1
  4082  4059  4065      1
  4083  4059  4066      1
  4084  4060  4061      1
  4085  4060  4067      1
  4086  4060  4071      1
  4087  4061  4062      2
  4088  4061  4063      1
  4089  4063  4064      1
  4090  4064  4068      1
  4091  4064  4069      1
  4092  4064  4070      1
  4093  4071  4072      1
  4094  4071  4077      1
  4095  4071  4078      1
  4096  4072  4073      1
  4097  4072  4079      1
  4098  4072  4083      1
  4099  4073  4074      2
  4100  4073  4075      1
  4101  4075  4076      1
  4102  4076  4080      1
  4103  4076  4081      1
  4104  4076  4082      1
  4105  4083  4084      1
  4106  4083  4089      1
  4107  4083  4090      1
  4108  4084  4085      1
  4109  4084  4091      1
  4110  4085  4086      2
  4111  4085  4087      1
  4112  4087  4088      1
  4113  4088  4092      1
  4114  4088  4093      1
  4115  4088  4094      1
  4116  4095  4096      1
  4117  4095  4101      1
  4118  4095  4102      1
  4119  4096  4097      1
  4120  4096  4103      1
  4121  4096  4107      1
  4122  4097  4098      2
  4123  4097  4099      1
  4124  4099  4100      1
  4125  4100  4104      1
  4126  4100  4105      1
  4127  4100  4106      1
  4128  4107  4108      1
  4129  4107  4113      1
  4130  4107  4114      1
  4131  4108  4109      1
  4132  4108  4115      1
  4133  4108  4119      1
  4134  4109  4110      2
  4135  4109  4111      1
  4136  4111  4112      1
  4137  4112  4116      1
  4138  4112  4117      1
  4139  4112  4118      1
  4140  4119  4120      1
  4141  4119  4125      1
  4142  4119  4126      1
  4143  4120  4121      1
  4144  4120  4127      1
  4145  4120  4131      1
  4146  4121  4122      2
  4147  4121  4123      1
  4148  4123  4124      1
  4149  4124  4128      1
  4150  4124  4129      1
  4151  4124  4130      1
  4152  4131  4132      1
  4153  4131  4137      1
  4154  4131  4138      1
  4155  4132  4133      1
  4156  4132  4139      1
  4157  4132  4143      1
  4158  4133  4134      2
  4159  4133  4135      1
  4160  4135  4136      1
  4161  4136  4140      1
  4162  4136  4141      1
  4163  4136  4142      1
  4164  4143  4144      1
  4165  4143  4149      1
  4166  4143  4150      1
  4167  4144  4145      1
  4168  4144  4151      1
  4169  4144  4155      1
  4170  4145  4146      2
  4171  4145  4147      1
  4172  4147  4148      1
  4173  4148  4152      1
  4174  4148  4153      1
  4175  4148  4154      1
  4176  4155  4156      1
  4177  4155  4161      1
  4178  4155  4162      1
  4179  4156  4157      1
  4180  4156  4163      1
  4181  4156  4167      1
  4182  4157  4158      2
  4183  4157  4159      1
  4184  4159  4160      1
  4185  4160  4164      1
  4186  4160  4165      1
  4187  4160  4166      1
  4188  4167  4168      1
  4189  4167  4173      1
  4190  4167  4174      1
  4191  4168  4169      1
  4192  4168  4175      1
  4193  4168  4179      1
  4194  4169  4170      2
  4195  4169  4171      1
  4196  4171  4172      1
  4197  4172  4176      1
  4198  4172  4177      1
  4199  4172  4178      1
  4200  4179  4180      1
  4201  4179  4185      1
  4202  4179  4186      1
  4203  4180  4181      1
  4204  4180  4187      1
  4205  4180  4191      1
  4206  4181  4182      2
  4207  4181  4183      1
  4208  4183  4184      1
  4209  4184  4188      1
  4210  4184  4189      1
  4211  4184  4190      1
  4212  4191  4192      1
  4213  4191  4197      1
  4214  4191  4198      1
  4215  4192  4193      1
  4216  4192  4199      1
  4217  4192  4203      1
  4218  4193  4194      2
  4219  4193  4195      1
  4220  4195  4196      1
  4221  4196  4200      1
  4222  4196  4201      1
  4223  4196  4202      1
  4224  4203  4204      1
  4225  4203  4209      1
  4226  4203  4210      1
  4227  4204  4205      1
  4228  4204  4211      1
  4229  4204  4215      1
  4230  4205  4206      2
  4231  4205  4207      1
  4232  4207  4208      1
  4233  4208  4212      1
  4234  4208  4213      1
  4235  4208  4214      1
  4236  4215  4216      1
  4237  4215  4221      1
  4238  4215  4222      1
  4239  4216  4217      1
  4240  4216  4223      1
  4241  4216  4227      1
  4242  4217  4218      2
  4243  4217  4219      1
  4244  4219  4220      1
  4245  4220  4224      1
  4246  4220  4225      1
  4247  4220  4226      1
  4248  4227  4228      1
  4249  4227  4233      1
  4250  4227  4234      1
  4251  4228  4229      1
  4252  4228  4235      1
  4253  4228  4239      1
  4254  4229  4230      2
  4255  4229  4231      1
  4256  4231  4232      1
  4257  4232  4236      1
  4258  4232  4237      1
  4259  4232  4238      1
  4260  4239  4240      1
  4261  4239  4245      1
  4262  4239  4246      1
  4263  4240  4241      1
  4264  4240  4247      1
  4265  4240  4251      1
  4266  4241  4242      2
  4267  4241  4243      1
  4268  4243  4244      1
  4269  4244  4248      1
  4270  4244  4249      1
  4271  4244  4250      1
  4272  4251  4252      1
  4273  4251  4257      1
  4274  4251  4258      1
  4275  4252  4253      1
  4276  4252  4259      1
  4277  4252  4263      1
  4278  4253  4254      2
  4279  4253  4255      1
  4280  4255  4256      1
  4281  4256  4260      1
  4282  4256  4261      1
  4283  4256  4262      1
  4284  4263  4264      1
  4285  4263  4269      1
  4286  4263  4270      1
  4287  4264  4265      1
  4288  4264  4271      1
  4289  4264  4275      1
  4290  4265  4266      2
  4291  4265  4267      1
  4292  4267  4268      1
  4293  4268  4272      1
  4294  4268  4273      1
  4295  4268  4274      1
  4296  4275  4276      1
  4297  4275  4281      1
  4298  4275  4282      1
  4299  4276  4277      1
  4300  4276  4283      1
  4301  4276  4287      1
  4302  4277  4278      2
  4303  4277  4279      1
  4304  4279  4280      1
  4305  4280  4284      1
  4306  4280  4285      1
  4307  4280  4286      1
  4308  4287  4288      1
  4309  4287  4293      1
  4310  4287  4294      1
  4311  4288  4289      1
  4312  4288  4295      1
  4313  4288  4299      1
  4314  4289  4290      2
  4315  4289  4291      1
  4316  4291  4292      1
  4317  4292  4296      1
  4318  4292  4297      1
  4319  4292  4298      1
  4320  4299  4300      1
  4321  4299  4305      1
  4322  4299  4306      1
  4323  4300  4301      1
  4324  4300  4307      1
  4325  4300  4311      1
  4326  4301  4302      2
  4327  4301  4303      1
  4328  4303  4304      1
  4329  4304  4308      1
  4330  4304  4309      1
  4331  4304  4310      1
  4332  4311  4312      1
  4333  4311  4317      1
  4334  4311  4318      1
  4335  4312  4313      1
  4336  4312  4319      1
  4337  4312  4323      1
  4338  4313  4314      2
  4339  4313  4315      1
  4340  4315  4316      1
  4341  4316  4320      1
  4342  4316  4321      1
  4343  4316  4322      1
  4344  4323  4324      1
  4345  4323  4329      1
  4346  4323  4330      1
  4347  4324  4325      1
  4348  4324  4331      1
  4349  4324  4335      1
  4350  4325  4326      2
  4351  4325  4327      1
  4352  4327  4328      1
  4353  4328  4332      1
  4354  4328  4333      1
  4355  4328  4334      1
  4356  4335  4336      1
  4357  4335  4341      1
  4358  4335  4342      1
  4359  4336  4337      1
  4360  4336  4343      1
  4361  4336  4347      1
  4362  4337  4338      2
  4363  4337  4339      1
  4364  4339  4340      1
  4365  4340  4344      1
  4366  4340  4345      1
  4367  4340  4346      1
  4368  4347  4348      1
  4369  4347  4353      1
  4370  4347  4354      1
  4371  4348  4349      1
  4372  4348  4355      1
  4373  4348  4359      1
  4374  4349  4350      2
  4375  4349  4351      1
  4376  4351  4352      1
  4377  4352  4356      1
  4378  4352  4357      1
  4379  4352  4358      1
  4380  4359  4360      1
  4381  4359  4365      1
  4382  4359  4366      1
  4383  4360  4361      1
  4384  4360  4367      1
  4385  4360  4371      1
  4386  4361  4362      2
  4387  4361  4363      1
  4388  4363  4364      1
  4389  4364  4368      1
  4390  4364  4369      1
  4391  4364  4370      1
  4392  4371  4372      1
  4393  4371  4377      1
  4394  4371  4378      1
  4395  4372  4373      1
  4396  4372  4379      1
  4397  4372  4383      1
  4398  4373  4374      2
  4399  4373  4375      1
  4400  4375  4376      1
  4401  4376  4380      1
  4402  4376  4381      1
  4403  4376  4382      1
  4404  4383  4384      1
  4405  4383  4389      1
  4406  4383  4390      1
  4407  4384  4385      1
  4408  4384  4391      1
  4409  4384  4395      1
  4410  4385  4386      2
  4411  4385  4387      1
  4412  4387  4388      1
  4413  4388  4392      1
  4414  4388  4393      1
  4415  4388  4394      1
  4416  4395  4396      1
  4417  4395  4401      1
  4418  4395  4402      1
  4419  4396  4397      1
  4420  4396  4403      1
  4421  4396  4407      1
  4422  4397  4398      2
  4423  4397  4399      1
  4424  4399  4400      1
  4425  4400  4404      1
  4426  4400  4405      1
  4427  4400  4406      1
  4428  4407  4408      1
  4429  4407  4413      1
  4430  4407  4414      1
  4431  4408  4409      1
  4432  4408  4415      1
  4433  4408  4419      1
  4434  4409  4410      2
  4435  4409  4411      1
  4436  4411  4412      1
  4437  4412  4416      1
  4438  4412  4417      1
  4439  4412  4418      1
  4440  4419  4420      1
  4441  4419  4425      1
  4442  4419  4426      1
  4443  4420  4421      1
  4444  4420  4427      1
  4445  4420  4431      1
  4446  4421  4422      2
  4447  4421  4423      1
  4448  4423  4424      1
  4449  4424  4428      1
  4450  4424  4429      1
  4451  4424  4430      1
  4452  4431  4432      1
  4453  4431  4437      1
  4454  4431  4438      1
  4455  4432  4433      1
  4456  4432  4439      1
  4457  4432  4443      1
  4458  4433  4434      2
  4459  4433  4435      1
  4460  4435  4436      1
  4461  4436  4440      1
  4462  4436  4441      1
  4463  4436  4442      1
  4464  4443  4444      1
  4465  4443  4449      1
  4466  4443  4450      1
  4467  4444  4445      1
  4468  4444  4451      1
  4469  4444  4455      1
  4470  4445  4446      2
  4471  4445  4447      1
  4472  4447  4448      1
  4473  4448  4452      1
  4474  4448  4453      1
  4475  4448  4454      1
  4476  4455  4456      1
  4477  4455  4461      1
  4478  4455  4462      1
  4479  4456  4457      1
  4480  4456  4463      1
  4481  4456  4467      1
  4482  4457  4458      2
  4483  4457  4459      1
  4484  4459  4460      1
  4485  4460  4464      1
  4486  4460  4465      1
  4487  4460  4466      1
  4488  4467  4468      1
  4489  4467  4473      1
  4490  4467  4474      1
  4491  4468  4469      1
  4492  4468  4475      1
  4493  4468  4479      1
  4494  4469  4470      2
  4495  4469  4471      1
  4496  4471  4472      1
  4497  4472  4476      1
  4498  4472  4477      1
  4499  4472  4478      1
  4500  4479  4480      1
  4501  4479  4485      1
  4502  4479  4486      1
  4503  4480  4481      1
  4504  4480  4487      1
  4505  4480  4491      1
  4506  4481  4482      2
  4507  4481  4483      1
  4508  4483  4484      1
  4509  4484  4488      1
  4510  4484  4489      1
  4511  4484  4490      1
  4512  4491  4492      1
  4513  4491  4497      1
  4514  4491  4498      1
  4515  4492  4493      1
  4516  4492  4499      1
  4517  4492  4503      1
  4518  4493  4494      2
  4519  4493  4495      1
  4520  4495  4496      1
  4521  4496  4500      1
  4522  4496  4501      1
  4523  4496  4502      1
  4524  4503  4504      1
  4525  4503  4509      1
  4526  4503  4510      1
  4527  4504  4505      1
  4528  4504  4511      1
  4529  4504  4515      1
  4530  4505  4506      2
  4531  4505  4507      1
  4532  4507  4508      1
  4533  4508  4512      1
  4534  4508  4513      1
  4535  4508  4514      1
  4536  4515  4516      1
  4537  4515  4521      1
  4538  4515  4522      1
  4539  4516  4517      1
  4540  4516  4523      1
  4541  4516  4527      1
  4542  4517  4518      2
  4543  4517  4519      1
  4544  4519  4520      1
  4545  4520  4524      1
  4546  4520  4525      1
  4547  4520  4526      1
  4548  4527  4528      1
  4549  4527  4533      1
  4550  4527  4534      1
  4551  4528  4529      1
  4552  4528  4535      1
  4553  4528  4539      1
  4554  4529  4530      2
  4555  4529  4531      1
  4556  4531  4532      1
  4557  4532  4536      1
  4558  4532  4537      1
  4559  4532  4538      1
  4560  4539  4540      1
  4561  4539  4545      1
  4562  4539  4546      1
  4563  4540  4541      1
  4564  4540  4547      1
  4565  4540  4551      1
  4566  4541  4542      2
  4567  4541  4543      1
  4568  4543  4544      1
  4569  4544  4548      1
  4570  4544  4549      1
  4571  4544  4550      1
  4572  4551  4552      1
  4573  4551  4557      1
  4574  4551  4558      1
  4575  4552  4553      1
  4576  4552  4559      1
  4577  4552  4563      1
  4578  4553  4554      2
  4579  4553  4555      1
  4580  4555  4556      1
  4581  4556  4560      1
  4582  4556  4561      1
  4583  4556  4562      1
  4584  4563  4564      1
  4585  4563  4569      1
  4586  4563  4570      1
  4587  4564  4565      1
  4588  4564  4571      1
  4589  4564  4575      1
  4590  4565  4566      2
  4591  4565  4567      1
  4592  4567  4568      1
  4593  4568  4572      1
  4594  4568  4573      1
  4595  4568  4574      1
  4596  4575  4576      1
  4597  4575  4581      1
  4598  4575  4582      1
  4599  4576  4577      1
  4600  4576  4583      1
  4601  4576  4587      1
  4602  4577  4578      2
  4603  4577  4579      1
  4604  4579  4580      1
  4605  4580  4584      1
  4606  4580  4585      1
  4607  4580  4586      1
  4608  4587  4588      1
  4609  4587  4593      1
  4610  4587  4594      1
  4611  4588  4589      1
  4612  4588  4595      1
  4613  4588  4599      1
  4614  4589  4590      2
  4615  4589  4591      1
  4616  4591  4592      1
  4617  4592  4596      1
  4618  4592  4597      1
  4619  4592  4598      1
  4620  4599  4600      1
  4621  4599  4605      1
  4622  4599  4606      1
  4623  4600  4601      1
  4624  4600  4607      1
  4625  4600  4611      1
  4626  4601  4602      2
  4627  4601  4603      1
  4628  4603  4604      1
  4629  4604  4608      1
  4630  4604  4609      1
  4631  4604  4610      1
  4632  4611  4612      1
  4633  4611  4617      1
  4634  4611  4618      1
  4635  4612  4613      1
  4636  4612  4619      1
  4637  4612  4623      1
  4638  4613  4614      2
  4639  4613  4615      1
  4640  4615  4616      1
  4641  4616  4620      1
  4642  4616  4621      1
  4643  4616  4622      1
  4644  4623  4624      1
  4645  4623  4629      1
  4646  4623  4630      1
  4647  4624  4625      1
  4648  4624  4631      1
  4649  4624  4635      1
  4650  4625  4626      2
  4651  4625  4627      1
  4652  4627  4628      1
  4653  4628  4632      1
  4654  4628  4633      1
  4655  4628  4634      1
  4656  4635  4636      1
  4657  4635  4641      1
  4658  4635  4642      1
  4659  4636  4637      1
  4660  4636  4643      1
  4661  4637  4638      2
  4662  4637  4639      1
  4663  4639  4640      1
  4664  4640  4644      1
  4665  4640  4645      1
  4666  4640  4646      1
  4667  4647  4648      1
  4668  4647  4653      1
  4669  4647  4654      1
  4670  4648  4649      1
  4671  4648  4655      1
  4672  4648  4659      1
  4673  4649  4650      2
  4674  4649  4651      1
  4675  4651  4652      1
  4676  4652  4656      1
  4677  4652  4657      1
  4678  4652  4658      1
  4679  4659  4660      1
  4680  4659  4665      1
  4681  4659  4666      1
  4682  4660  4661      1
  4683  4660  4667      1
  4684  4660  4671      1
  4685  4661  4662      2
  4686  4661  4663      1
  4687  4663  4664      1
  4688  4664  4668      1
  4689  4664  4669      1
  4690  4664  4670      1
  4691  4671  4672      1
  4692  4671  4677      1
  4693  4671  4678      1
  4694  4672  4673      1
  4695  4672  4679      1
  4696  4672  4683      1
  4697  4673  4674      2
  4698  4673  4675      1
  4699  4675  4676      1
  4700  4676  4680      1
  4701  4676  4681      1
  4702  4676  4682      1
  4703  4683  4684      1
  4704  4683  4689      1
  4705  4683  4690      1
  4706  4684  4685      1
  4707  4684  4691      1
  4708  4684  4695      1
  4709  4685  4686      2
  4710  4685  4687      1
  4711  4687  4688      1
  4712  4688  4692      1
  4713  4688  4693      1
  4714  4688  4694      1
  4715  4695  4696      1
  4716  4695  4701      1
  4717  4695  4702      1
  4718  4696  4697      1
  4719  4696  4703      1
  4720  4696  4707      1
  4721  4697  4698      2
  4722  4697  4699      1
  4723  4699  4700      1
  4724  4700  4704      1
  4725  4700  4705      1
  4726  4700  4706      1
  4727  4707  4708      1
  4728  4707  4713      1
  4729  4707  4714      1
  4730  4708  4709      1
  4731  4708  4715      1
  4732  4708  4719      1
  4733  4709  4710      2
  4734  4709  4711      1
  4735  4711  4712      1
  4736  4712  4716      1
  4737  4712  4717      1
  4738  4712  4718      1
  4739  4719  4720      1
  4740  4719  4725      1
  4741  4719  4726      1
  4742  4720  4721      1
  4743  4720  4727      1
  4744  4720  4731      1
  4745  4721  4722      2
  4746  4721  4723      1
  4747  4723  4724      1
  4748  4724  4728      1
  4749  4724  4729      1
  4750  4724  4730      1
  4751  4731  4732      1
  4752  4731  4737      1
  4753  4731  4738      1
  4754  4732  4733      1
  4755  4732  4739      1
  4756  4732  4743      1
  4757  4733  4734      2
  4758  4733  4735      1
  4759  4735  4736      1
  4760  4736  4740      1
  4761  4736  4741      1
  4762  4736  4742      1
  4763  4743  4744      1
  4764  4743  4749      1
  4765  4743  4750      1
  4766  4744  4745      1
  4767  4744  4751      1
  4768  4744  4755      1
  4769  4745  4746      2
  4770  4745  4747      1
  4771  4747  4748      1
  4772  4748  4752      1
  4773  4748  4753      1
  4774  4748  4754      1
  4775  4755  4756      1
  4776  4755  4761      1
  4777  4755  4762      1
  4778  4756  4757      1
  4779  4756  4763      1
  4780  4756  4767      1
  4781  4757  4758      2
  4782  4757  4759      1
  4783  4759  4760      1
  4784  4760  4764      1
  4785  4760  4765      1
  4786  4760  4766      1
  4787  4767  4768      1
  4788  4767  4773      1
  4789  4767  4774      1
  4790  4768  4769      1
  4791  4768  4775      1
  4792  4768  4779      1
  4793  4769  4770      2
  4794  4769  4771      1
  4795  4771  4772      1
  4796  4772  4776      1
  4797  4772  4777      1
  4798  4772  4778      1
  4799  4779  4780      1
  4800  4779  4785      1
  4801  4779  4786      1
  4802  4780  4781      1
  4803  4780  4787      1
  4804  4780  4791      1
  4805  4781  4782      2
  4806  4781  4783      1
  4807  4783  4784      1
  4808  4784  4788      1
  4809  4784  4789      1
  4810  4784  4790      1
  4811  4791  4792      1
  4812  4791  4797      1
  4813  4791  4798      1
  4814  4792  4793      1
  4815  4792  4799      1
  4816  4792  4803      1
  4817  4793  4794      2
  4818  4793  4795      1
  4819  4795  4796      1
  4820  4796  4800      1
  4821  4796  4801      1
  4822  4796  4802      1
  4823  4803  4804      1
  4824  4803  4809      1
  4825  4803  4810      1
  4826  4804  4805      1
  4827  4804  4811      1
  4828  4804  4815      1
  4829  4805  4806      2
  4830  4805  4807      1
  4831  4807  4808      1
  4832  4808  4812      1
  4833  4808  4813      1
  4834  4808  4814      1
  4835  4815  4816      1
  4836  4815  4821      1
  4837  4815  4822      1
  4838  4816  4817      1
  4839  4816  4823      1
  4840  4816  4827      1
  4841  4817  4818      2
  4842  4817  4819      1
  4843  4819  4820      1
  4844  4820  4824      1
  4845  4820  4825      1
  4846  4820  4826      1
  4847  4827  4828      1
  4848  4827  4833      1
  4849  4827  4834      1
  4850  4828  4829      1
  4851  4828  4835      1
  4852  4828  4839      1
  4853  4829  4830      2
  4854  4829  4831      1
  4855  4831  4832      1
  4856  4832  4836      1
  4857  4832  4837      1
  4858  4832  4838      1
  4859  4839  4840      1
  4860  4839  4845      1
  4861  4839  4846      1
  4862  4840  4841      1
  4863  4840  4847      1
  4864  4840  4851      1
  4865  4841  4842      2
  4866  4841  4843      1
  4867  4843  4844      1
  4868  4844  4848      1
  4869  4844  4849      1
  4870  4844  4850      1
  4871  4851  4852      1
  4872  4851  4857      1
  4873  4851  4858      1
  4874  4852  4853      1
  4875  4852  4859      1
  4876  4852  4863      1
  4877  4853  4854      2
  4878  4853  4855      1
  4879  4855  4856      1
  4880  4856  4860      1
  4881  4856  4861      1
  4882  4856  4862      1
  4883  4863  4864      1
  4884  4863  4869      1
  4885  4863  4870      1
  4886  4864  4865      1
  4887  4864  4871      1
  4888  4864  4875      1
  4889  4865  4866      2
  4890  4865  4867      1
  4891  4867  4868      1
  4892  4868  4872      1
  4893  4868  4873      1
  4894  4868  4874      1
  4895  4875  4876      1
  4896  4875  4881      1
  4897  4875  4882      1
  4898  4876  4877      1
  4899  4876  4883      1
  4900  4876  4887      1
  4901  4877  4878      2
  4902  4877  4879      1
  4903  4879  4880      1
  4904  4880  4884      1
  4905  4880  4885      1
  4906  4880  4886      1
  4907  4887  4888      1
  4908  4887  4893      1
  4909  4887  4894      1
  4910  4888  4889      1
  4911  4888  4895      1
  4912  4888  4899      1
  4913  4889  4890      2
  4914  4889  4891      1
  4915  4891  4892      1
  4916  4892  4896      1
  4917  4892  4897      1
  4918  4892  4898      1
  4919  4899  4900      1
  4920  4899  4905      1
  4921  4899  4906      1
  4922  4900  4901      1
  4923  4900  4907      1
  4924  4900  4911      1
  4925  4901  4902      2
  4926  4901  4903      1
  4927  4903  4904      1
  4928  4904  4908      1
  4929  4904  4909      1
  4930  4904  4910      1
  4931  4911  4912      1
  4932  4911  4917      1
  4933  4911  4918      1
  4934  4912  4913      1
  4935  4912  4919      1
  4936  4912  4923      1
  4937  4913  4914      2
  4938  4913  4915      1
  4939  4915  4916      1
  4940  4916  4920      1
  4941  4916  4921      1
  4942  4916  4922      1
  4943  4923  4924      1
  4944  4923  4929      1
  4945  4923  4930      1
  4946  4924  4925      1
  4947  4924  4931      1
  4948  4924  4935      1
  4949  4925  4926      2
  4950  4925  4927      1
  4951  4927  4928      1
  4952  4928  4932      1
  4953  4928  4933      1
  4954  4928  4934      1
  4955  4935  4936      1
  4956  4935  4941      1
  4957  4935  4942      1
  4958  4936  4937      1
  4959  4936  4943      1
  4960  4936  4947      1
  4961  4937  4938      2
  4962  4937  4939      1
  4963  4939  4940      1
  4964  4940  4944      1
  4965  4940  4945      1
  4966  4940  4946      1
  4967  4947  4948      1
  4968  4947  4953      1
  4969  4947  4954      1
  4970  4948  4949      1
  4971  4948  4955      1
  4972  4948  4959      1
  4973  4949  4950      2
  4974  4949  4951      1
  4975  4951  4952      1
  4976  4952  4956      1
  4977  4952  4957      1
  4978  4952  4958      1
  4979  4959  4960      1
  4980  4959  4965      1
  4981  4959  4966      1
  4982  4960  4961      1
  4983  4960  4967      1
  4984  4960  4971      1
  4985  4961  4962      2
  4986  4961  4963      1
  4987  4963  4964      1
  4988  4964  4968      1
  4989  4964  4969      1
  4990  4964  4970      1
  4991  4971  4972      1
  4992  4971  4977      1
  4993  4971  4978      1
  4994  4972  4973      1
  4995  4972  4979      1
  4996  4972  4983      1
  4997  4973  4974      2
  4998  4973  4975      1
  4999  4975  4976      1
  5000  4976  4980      1
  5001  4976  4981      1
  5002  4976  4982      1
  5003  4983  4984      1
  5004  4983  4989      1
  5005  4983  4990      1
  5006  4984  4985      1
  5007  4984  4991      1
  5008  4984  4995      1
  5009  4985  4986      2
  5010  4985  4987      1
  5011  4987  4988      1
  5012  4988  4992      1
  5013  4988  4993      1
  5014  4988  4994      1
  5015  4995  4996      1
  5016  4995  5001      1
  5017  4995  5002      1
  5018  4996  4997      1
  5019  4996  5003      1
  5020  4996  5007      1
  5021  4997  4998      2
  5022  4997  4999      1
  5023  4999  5000      1
  5024  5000  5004      1
  5025  5000  5005      1
  5026  5000  5006      1
  5027  5007  5008      1
  5028  5007  5013      1
  5029  5007  5014      1
  5030  5008  5009      1
  5031  5008  5015      1
  5032  5008  5019      1
  5033  5009  5010      2
  5034  5009  5011      1
  5035  5011  5012      1
  5036  5012  5016      1
  5037  5012  5017      1
  5038  5012  5018      1
  5039  5019  5020      1
  5040  5019  5025      1
  5041  5019  5026      1
  5042  5020  5021      1
  5043  5020  5027      1
  5044  5020  5031      1
  5045  5021  5022      2
  5046  5021  5023      1
  5047  5023  5024      1
  5048  5024  5028      1
  5049  5024  5029      1
  5050  5024  5030      1
  5051  5031  5032      1
  5052  5031  5037      1
  5053  5031  5038      1
  5054  5032  5033      1
  5055  5032  5039      1
  5056  5032  5043      1
  5057  5033  5034      2
  5058  5033  5035      1
  5059  5035  5036      1
  5060  5036  5040      1
  5061  5036  5041      1
  5062  5036  5042      1
  5063  5043  5044      1
  5064  5043  5049      1
  5065  5043  5050      1
  5066  5044  5045      1
  5067  5044  5051      1
  5068  5044  5055      1
  5069  5045  5046      2
  5070  5045  5047      1
  5071  5047  5048      1
  5072  5048  5052      1
  5073  5048  5053      1
  5074  5048  5054      1
  5075  5055  5056      1
  5076  5055  5061      1
  5077  5055  5062      1
  5078  5056  5057      1
  5079  5056  5063      1
  5080  5056  5067      1
  5081  5057  5058      2
  5082  5057  5059      1
  5083  5059  5060      1
  5084  5060  5064      1
  5085  5060  5065      1
  5086  5060  5066      1
  5087  5067  5068      1
  5088  5067  5073      1
  5089  5067  5074      1
  5090  5068  5069      1
  5091  5068  5075      1
  5092  5068  5079      1
  5093  5069  5070      2
  5094  5069  5071      1
  5095  5071  5072      1
  5096  5072  5076      1
  5097  5072  5077      1
  5098  5072  5078      1
  5099  5079  5080      1
  5100  5079  5085      1
  5101  5079  5086      1
  5102  5080  5081      1
  5103  5080  5087      1
  5104  5080  5091      1
  5105  5081  5082      2
  5106  5081  5083      1
  5107  5083  5084      1
  5108  5084  5088      1
  5109  5084  5089      1
  5110  5084  5090      1
  5111  5091  5092      1
  5112  5091  5097      1
  5113  5091  5098      1
  5114  5092  5093      1
  5115  5092  5099      1
  5116  5092  5103      1
  5117  5093  5094      2
  5118  5093  5095      1
  5119  5095  5096      1
  5120  5096  5100      1
  5121  5096  5101      1
  5122  5096  5102      1
  5123  5103  5104      1
  5124  5103  5109      1
  5125  5103  5110      1
  5126  5104  5105      1
  5127  5104  5111      1
  5128  5104  5115      1
  5129  5105  5106      2
  5130  5105  5107      1
  5131  5107  5108      1
  5132  5108  5112      1
  5133  5108  5113      1
  5134  5108  5114      1
  5135  5115  5116      1
  5136  5115  5121      1
  5137  5115  5122      1
  5138  5116  5117      1
  5139  5116  5123      1
  5140  5116  5127      1
  5141  5117  5118      2
  5142  5117  5119      1
  5143  5119  5120      1
  5144  5120  5124      1
  5145  5120  5125      1
  5146  5120  5126      1
  5147  5127  5128      1
  5148  5127  5133      1
  5149  5127  5134      1
  5150  5128  5129      1
  5151  5128  5135      1
  5152  5128  5139      1
  5153  5129  5130      2
  5154  5129  5131      1
  5155  5131  5132      1
  5156  5132  5136      1
  5157  5132  5137      1
  5158  5132  5138      1
  5159  5139  5140      1
  5160  5139  5145      1
  5161  5139  5146      1
  5162  5140  5141      1
  5163  5140  5147      1
  5164  5140  5151      1
  5165  5141  5142      2
  5166  5141  5143      1
  5167  5143  5144      1
  5168  5144  5148      1
  5169  5144  5149      1
  5170  5144  5150      1
  5171  5151  5152      1
  5172  5151  5157      1
  5173  5151  5158      1
  5174  5152  5153      1
  5175  5152  5159      1
  5176  5152  5163      1
  5177  5153  5154      2
  5178  5153  5155      1
  5179  5155  5156      1
  5180  5156  5160      1
  5181  5156  5161      1
  5182  5156  5162      1
  5183  5163  5164      1
  5184  5163  5169      1
  5185  5163  5170      1
  5186  5164  5165      1
  5187  5164  5171      1
  5188  5164  5175      1
  5189  5165  5166      2
  5190  5165  5167      1
  5191  5167  5168      1
  5192  5168  5172      1
  5193  5168  5173      1
  5194  5168  5174      1
  5195  5175  5176      1
  5196  5175  5181      1
  5197  5175  5182      1
  5198  5176  5177      1
  5199  5176  5183      1
  5200  5176  5187      1
  5201  5177  5178      2
  5202  5177  5179      1
  5203  5179  5180      1
  5204  5180  5184      1
  5205  5180  5185      1
  5206  5180  5186      1
  5207  5187  5188      1
  5208  5187  5193      1
  5209  5187  5194      1
  5210  5188  5189      1
  5211  5188  5195      1
  5212  5188  5199      1
  5213  5189  5190      2
  5214  5189  5191      1
  5215  5191  5192      1
  5216  5192  5196      1
  5217  5192  5197      1
  5218  5192  5198      1
  5219  5199  5200      1
  5220  5199  5205      1
  5221  5199  5206      1
  5222  5200  5201      1
  5223  5200  5207      1
  5224  5200  5211      1
  5225  5201  5202      2
  5226  5201  5203      1
  5227  5203  5204      1
  5228  5204  5208      1
  5229  5204  5209      1
  5230  5204  5210      1
  5231  5211  5212      1
  5232  5211  5217      1
  5233  5211  5218      1
  5234  5212  5213      1
  5235  5212  5219      1
  5236  5212  5223      1
  5237  5213  5214      2
  5238  5213  5215      1
  5239  5215  5216      1
  5240  5216  5220      1
  5241  5216  5221      1
  5242  5216  5222      1
  5243  5223  5224      1
  5244  5223  5229      1
  5245  5223  5230      1
  5246  5224  5225      1
  5247  5224  5231      1
  5248  5224  5235      1
  5249  5225  5226      2
  5250  5225  5227      1
  5251  5227  5228      1
  5252  5228  5232      1
  5253  5228  5233      1
  5254  5228  5234      1
  5255  5235  5236      1
  5256  5235  5241      1
  5257  5235  5242      1
  5258  5236  5237      1
  5259  5236  5243      1
  5260  5236  5247      1
  5261  5237  5238      2
  5262  5237  5239      1
  5263  5239  5240      1
  5264  5240  5244      1
  5265  5240  5245      1
  5266  5240  5246      1
  5267  5247  5248      1
  5268  5247  5253      1
  5269  5247  5254      1
  5270  5248  5249      1
  5271  5248  5255      1
  5272  5248  5259      1
  5273  5249  5250      2
  5274  5249  5251      1
  5275  5251  5252      1
  5276  5252  5256      1
  5277  5252  5257      1
  5278  5252  5258      1
  5279  5259  5260      1
  5280  5259  5265      1
  5281  5259  5266      1
  5282  5260  5261      1
  5283  5260  5267      1
  5284  5260  5271      1
  5285  5261  5262      2
  5286  5261  5263      1
  5287  5263  5264      1
  5288  5264  5268      1
  5289  5264  5269      1
  5290  5264  5270      1
  5291  5271  5272      1
  5292  5271  5277      1
  5293  5271  5278      1
  5294  5272  5273      1
  5295  5272  5279      1
  5296  5273  5274      2
  5297  5273  5275      1
  5298  5275  5276      1
  5299  5276  5280      1
  5300  5276  5281      1
  5301  5276  5282      1
  5302  5283  5284      1
  5303  5283  5289      1
  5304  5283  5290      1
  5305  5284  5285      1
  5306  5284  5291      1
  5307  5284  5295      1
  5308  5285  5286      2
  5309  5285  5287      1
  5310  5287  5288      1
  5311  5288  5292      1
  5312  5288  5293      1
  5313  5288  5294      1
  5314  5295  5296      1
  5315  5295  5301      1
  5316  5295  5302      1
  5317  5296  5297      1
  5318  5296  5303      1
  5319  5296  5307      1
  5320  5297  5298      2
  5321  5297  5299      1
  5322  5299  5300      1
  5323  5300  5304      1
  5324  5300  5305      1
  5325  5300  5306      1
  5326  5307  5308      1
  5327  5307  5313      1
  5328  5307  5314      1
  5329  5308  5309      1
  5330  5308  5315      1
  5331  5308  5319      1
  5332  5309  5310      2
  5333  5309  5311      1
  5334  5311  5312      1
  5335  5312  5316      1
  5336  5312  5317      1
  5337  5312  5318      1
  5338  5319  5320      1
  5339  5319  5325      1
  5340  5319  5326      1
  5341  5320  5321      1
  5342  5320  5327      1
  5343  5320  5331      1
  5344  5321  5322      2
  5345  5321  5323      1
  5346  5323  5324      1
  5347  5324  5328      1
  5348  5324  5329      1
  5349  5324  5330      1
  5350  5331  5332      1
  5351  5331  5337      1
  5352  5331  5338      1
  5353  5332  5333      1
  5354  5332  5339      1
  5355  5332  5343      1
  5356  5333  5334      2
  5357  5333  5335      1
  5358  5335  5336      1
  5359  5336  5340      1
  5360  5336  5341      1
  5361  5336  5342      1
  5362  5343  5344      1
  5363  5343  5349      1
  5364  5343  5350      1
  5365  5344  5345      1
  5366  5344  5351      1
  5367  5344  5355      1
  5368  5345  5346      2
  5369  5345  5347      1
  5370  5347  5348      1
  5371  5348  5352      1
  5372  5348  5353      1
  5373  5348  5354      1
  5374  5355  5356      1
  5375  5355  5361      1
  5376  5355  5362      1
  5377  5356  5357      1
  5378  5356  5363      1
  5379  5356  5367      1
  5380  5357  5358      2
  5381  5357  5359      1
  5382  5359  5360      1
  5383  5360  5364      1
  5384  5360  5365      1
  5385  5360  5366      1
  5386  5367  5368      1
  5387  5367  5373      1
  5388  5367  5374      1
  5389  5368  5369      1
  5390  5368  5375      1
  5391  5368  5379      1
  5392  5369  5370      2
  5393  5369  5371      1
  5394  5371  5372      1
  5395  5372  5376      1
  5396  5372  5377      1
  5397  5372  5378      1
  5398  5379  5380      1
  5399  5379  5385      1
  5400  5379  5386      1
  5401  5380  5381      1
  5402  5380  5387      1
  5403  5380  5391      1
  5404  5381  5382      2
  5405  5381  5383      1
  5406  5383  5384      1
  5407  5384  5388      1
  5408  5384  5389      1
  5409  5384  5390      1
  5410  5391  5392      1
  5411  5391  5397      1
  5412  5391  5398      1
  5413  5392  5393      1
  5414  5392  5399      1
  5415  5392  5403      1
  5416  5393  5394      2
  5417  5393  5395      1
  5418  5395  5396      1
  5419  5396  5400      1
  5420  5396  5401      1
  5421  5396  5402      1
  5422  5403  5404      1
  5423  5403  5409      1
  5424  5403  5410      1
  5425  5404  5405      1
  5426  5404  5411      1
  5427  5404  5415      1
  5428  5405  5406      2
  5429  5405  5407      1
  5430  5407  5408      1
  5431  5408  5412      1
  5432  5408  5413      1
  5433  5408  5414      1
  5434  5415  5416      1
  5435  5415  5421      1
  5436  5415  5422      1
  5437  5416  5417      1
  5438  5416  5423      1
  5439  5416  5427      1
  5440  5417  5418      2
  5441  5417  5419      1
  5442  5419  5420      1
  5443  5420  5424      1
  5444  5420  5425      1
  5445  5420  5426      1
  5446  5427  5428      1
  5447  5427  5433      1
  5448  5427  5434      1
  5449  5428  5429      1
  5450  5428  5435      1
  5451  5428  5439      1
  5452  5429  5430      2
  5453  5429  5431      1
  5454  5431  5432      1
  5455  5432  5436      1
  5456  5432  5437      1
  5457  5432  5438      1
  5458  5439  5440      1
  5459  5439  5445      1
  5460  5439  5446      1
  5461  5440  5441      1
  5462  5440  5447      1
  5463  5440  5451      1
  5464  5441  5442      2
  5465  5441  5443      1
  5466  5443  5444      1
  5467  5444  5448      1
  5468  5444  5449      1
  5469  5444  5450      1
  5470  5451  5452      1
  5471  5451  5457      1
  5472  5451  5458      1
  5473  5452  5453      1
  5474  5452  5459      1
  5475  5452  5463      1
  5476  5453  5454      2
  5477  5453  5455      1
  5478  5455  5456      1
  5479  5456  5460      1
  5480  5456  5461      1
  5481  5456  5462      1
  5482  5463  5464      1
  5483  5463  5469      1
  5484  5463  5470      1
  5485  5464  5465      1
  5486  5464  5471      1
  5487  5464  5475      1
  5488  5465  5466      2
  5489  5465  5467      1
  5490  5467  5468      1
  5491  5468  5472      1
  5492  5468  5473      1
  5493  5468  5474      1
  5494  5475  5476      1
  5495  5475  5481      1
  5496  5475  5482      1
  5497  5476  5477      1
  5498  5476  5483      1
  5499  5476  5487      1
  5500  5477  5478      2
  5501  5477  5479      1
  5502  5479  5480      1
  5503  5480  5484      1
  5504  5480  5485      1
  5505  5480  5486      1
  5506  5487  5488      1
  5507  5487  5493      1
  5508  5487  5494      1
  5509  5488  5489      1
  5510  5488  5495      1
  5511  5488  5499      1
  5512  5489  5490      2
  5513  5489  5491      1
  5514  5491  5492      1
  5515  5492  5496      1
  5516  5492  5497      1
  5517  5492  5498      1
  5518  5499  5500      1
  5519  5499  5505      1
  5520  5499  5506      1
  5521  5500  5501      1
  5522  5500  5507      1
  5523  5500  5511      1
  5524  5501  5502      2
  5525  5501  5503      1
  5526  5503  5504      1
  5527  5504  5508      1
  5528  5504  5509      1
  5529  5504  5510      1
  5530  5511  5512      1
  5531  5511  5517      1
  5532  5511  5518      1
  5533  5512  5513      1
  5534  5512  5519      1
  5535  5512  5523      1
  5536  5513  5514      2
  5537  5513  5515      1
  5538  5515  5516      1
  5539  5516  5520      1
  5540  5516  5521      1
  5541  5516  5522      1
  5542  5523  5524      1
  5543  5523  5529      1
  5544  5523  5530      1
  5545  5524  5525      1
  5546  5524  5531      1
  5547  5524  5535      1
  5548  5525  5526      2
  5549  5525  5527      1
  5550  5527  5528      1
  5551  5528  5532      1
  5552  5528  5533      1
  5553  5528  5534      1
  5554  5535  5536      1
  5555  5535  5541      1
  5556  5535  5542      1
  5557  5536  5537      1
  5558  5536  5543      1
  5559  5536  5547      1
  5560  5537  5538      2
  5561  5537  5539      1
  5562  5539  5540      1
  5563  5540  5544      1
  5564  5540  5545      1
  5565  5540  5546      1
  5566  5547  5548      1
  5567  5547  5553      1
  5568  5547  5554      1
  5569  5548  5549      1
  5570  5548  5555      1
  5571  5548  5559      1
  5572  5549  5550      2
  5573  5549  5551      1
  5574  5551  5552      1
  5575  5552  5556      1
  5576  5552  5557      1
  5577  5552  5558      1
  5578  5559  5560      1
  5579  5559  5565      1
  5580  5559  5566      1
  5581  5560  5561      1
  5582  5560  5567      1
  5583  5560  5571      1
  5584  5561  5562      2
  5585  5561  5563      1
  5586  5563  5564      1
  5587  5564  5568      1
  5588  5564  5569      1
  5589  5564  5570      1
  5590  5571  5572      1
  5591  5571  5577      1
  5592  5571  5578      1
  5593  5572  5573      1
  5594  5572  5579      1
  5595  5572  5583      1
  5596  5573  5574      2
  5597  5573  5575      1
  5598  5575  5576      1
  5599  5576  5580      1
  5600  5576  5581      1
  5601  5576  5582      1
  5602  5583  5584      1
  5603  5583  5589      1
  5604  5583  5590      1
  5605  5584  5585      1
  5606  5584  5591      1
  5607  5584  5595      1
  5608  5585  5586      2
  5609  5585  5587      1
  5610  5587  5588      1
  5611  5588  5592      1
  5612  5588  5593      1
  5613  5588  5594      1
  5614  5595  5596      1
  5615  5595  5601      1
  5616  5595  5602      1
  5617  5596  5597      1
  5618  5596  5603      1
  5619  5596  5607      1
  5620  5597  5598      2
  5621  5597  5599      1
  5622  5599  5600      1
  5623  5600  5604      1
  5624  5600  5605      1
  5625  5600  5606      1
  5626  5607  5608      1
  5627  5607  5613      1
  5628  5607  5614      1
  5629  5608  5609      1
  5630  5608  5615      1
  5631  5608  5619      1
  5632  5609  5610      2
  5633  5609  5611      1
  5634  5611  5612      1
  5635  5612  5616      1
  5636  5612  5617      1
  5637  5612  5618      1
  5638  5619  5620      1
  5639  5619  5625      1
  5640  5619  5626      1
  5641  5620  5621      1
  5642  5620  5627      1
  5643  5620  5631      1
  5644  5621  5622      2
  5645  5621  5623      1
  5646  5623  5624      1
  5647  5624  5628      1
  5648  5624  5629      1
  5649  5624  5630      1
  5650  5631  5632      1
  5651  5631  5637      1
  5652  5631  5638      1
  5653  5632  5633      1
  5654  5632  5639      1
  5655  5632  5643      1
  5656  5633  5634      2
  5657  5633  5635      1
  5658  5635  5636      1
  5659  5636  5640      1
  5660  5636  5641      1
  5661  5636  5642      1
  5662  5643  5644      1
  5663  5643  5649      1
  5664  5643  5650      1
  5665  5644  5645      1
  5666  5644  5651      1
  5667  5644  5655      1
  5668  5645  5646      2
  5669  5645  5647      1
  5670  5647  5648      1
  5671  5648  5652      1
  5672  5648  5653      1
  5673  5648  5654      1
  5674  5655  5656      1
  5675  5655  5661      1
  5676  5655  5662      1
  5677  5656  5657      1
  5678  5656  5663      1
  5679  5656  5667      1
  5680  5657  5658      2
  5681  5657  5659      1
  5682  5659  5660      1
  5683  5660  5664      1
  5684  5660  5665      1
  5685  5660  5666      1
  5686  5667  5668      1
  5687  5667  5673      1
  5688  5667  5674      1
  5689  5668  5669      1
  5690  5668  5675      1
  5691  5668  5679      1
  5692  5669  5670      2
  5693  5669  5671      1
  5694  5671  5672      1
  5695  5672  5676      1
  5696  5672  5677      1
  5697  5672  5678      1
  5698  5679  5680      1
  5699  5679  5685      1
  5700  5679  5686      1
  5701  5680  5681      1
  5702  5680  5687      1
  5703  5680  5691      1
  5704  5681  5682      2
  5705  5681  5683      1
  5706  5683  5684      1
  5707  5684  5688      1
  5708  5684  5689      1
  5709  5684  5690      1
  5710  5691  5692      1
  5711  5691  5697      1
  5712  5691  5698      1
  5713  5692  5693      1
  5714  5692  5699      1
  5715  5692  5703      1
  5716  5693  5694      2
  5717  5693  5695      1
  5718  5695  5696      1
  5719  5696  5700      1
  5720  5696  5701      1
  5721  5696  5702      1
  5722  5703  5704      1
  5723  5703  5709      1
  5724  5703  5710      1
  5725  5704  5705      1
  5726  5704  5711      1
  5727  5704  5715      1
  5728  5705  5706      2
  5729  5705  5707      1
  5730  5707  5708      1
  5731  5708  5712      1
  5732  5708  5713      1
  5733  5708  5714      1
  5734  5715  5716      1
  5735  5715  5721      1
  5736  5715  5722      1
  5737  5716  5717      1
  5738  5716  5723      1
  5739  5716  5727      1
  5740  5717  5718      2
  5741  5717  5719      1
  5742  5719  5720      1
  5743  5720  5724      1
  5744  5720  5725      1
  5745  5720  5726      1
  5746  5727  5728      1
  5747  5727  5733      1
  5748  5727  5734      1
  5749  5728  5729      1
  5750  5728  5735      1
  5751  5728  5739      1
  5752  5729  5730      2
  5753  5729  5731      1
  5754  5731  5732      1
  5755  5732  5736      1
  5756  5732  5737      1
  5757  5732  5738      1
  5758  5739  5740      1
  5759  5739  5745      1
  5760  5739  5746      1
  5761  5740  5741      1
  5762  5740  5747      1
  5763  5740  5751      1
  5764  5741  5742      2
  5765  5741  5743      1
  5766  5743  5744      1
  5767  5744  5748      1
  5768  5744  5749      1
  5769  5744  5750      1
  5770  5751  5752      1
  5771  5751  5757      1
  5772  5751  5758      1
  5773  5752  5753      1
  5774  5752  5759      1
  5775  5752  5763      1
  5776  5753  5754      2
  5777  5753  5755      1
  5778  5755  5756      1
  5779  5756  5760      1
  5780  5756  5761      1
  5781  5756  5762      1
  5782  5763  5764      1
  5783  5763  5769      1
  5784  5763  5770      1
  5785  5764  5765      1
  5786  5764  5771      1
  5787  5764  5775      1
  5788  5765  5766      2
  5789  5765  5767      1
  5790  5767  5768      1
  5791  5768  5772      1
  5792  5768  5773      1
  5793  5768  5774      1
  5794  5775  5776      1
  5795  5775  5781      1
  5796  5775  5782      1
  5797  5776  5777      1
  5798  5776  5783      1
  5799  5776  5787      1
  5800  5777  5778      2
  5801  5777  5779      1
  5802  5779  5780      1
  5803  5780  5784      1
  5804  5780  5785      1
  5805  5780  5786      1
  5806  5787  5788      1
  5807  5787  5793      1
  5808  5787  5794      1
  5809  5788  5789      1
  5810  5788  5795      1
  5811  5788  5799      1
  5812  5789  5790      2
  5813  5789  5791      1
  5814  5791  5792      1
  5815  5792  5796      1
  5816  5792  5797      1
  5817  5792  5798      1
  5818  5799  5800      1
  5819  5799  5805      1
  5820  5799  5806      1
  5821  5800  5801      1
  5822  5800  5807      1
  5823  5800  5811      1
  5824  5801  5802      2
  5825  5801  5803      1
  5826  5803  5804      1
  5827  5804  5808      1
  5828  5804  5809      1
  5829  5804  5810      1
  5830  5811  5812      1
  5831  5811  5817      1
  5832  5811  5818      1
  5833  5812  5813      1
  5834  5812  5819      1
  5835  5812  5823      1
  5836  5813  5814      2
  5837  5813  5815      1
  5838  5815  5816      1
  5839  5816  5820      1
  5840  5816  5821      1
  5841  5816  5822      1
  5842  5823  5824      1
  5843  5823  5829      1
  5844  5823  5830      1
  5845  5824  5825      1
  5846  5824  5831      1
  5847  5824  5835      1
  5848  5825  5826      2
  5849  5825  5827      1
  5850  5827  5828      1
  5851  5828  5832      1
  5852  5828  5833      1
  5853  5828  5834      1
  5854  5835  5836      1
  5855  5835  5841      1
  5856  5835  5842      1
  5857  5836  5837      1
  5858  5836  5843      1
  5859  5836  5847      1
  5860  5837  5838      2
  5861  5837  5839      1
  5862  5839  5840      1
  5863  5840  5844      1
  5864  5840  5845      1
  5865  5840  5846      1
  5866  5847  5848      1
  5867  5847  5853      1
  5868  5847  5854      1
  5869  5848  5849      1
  5870  5848  5855      1
  5871  5848  5859      1
  5872  5849  5850      2
  5873  5849  5851      1
  5874  5851  5852      1
  5875  5852  5856      1
  5876  5852  5857      1
  5877  5852  5858      1
  5878  5859  5860      1
  5879  5859  5865      1
  5880  5859  5866      1
  5881  5860  5861      1
  5882  5860  5867      1
  5883  5860  5871      1
  5884  5861  5862      2
  5885  5861  5863      1
  5886  5863  5864      1
  5887  5864  5868      1
  5888  5864  5869      1
  5889  5864  5870      1
  5890  5871  5872      1
  5891  5871  5877      1
  5892  5871  5878      1
  5893  5872  5873      1
  5894  5872  5879      1
  5895  5872  5883      1
  5896  5873  5874      2
  5897  5873  5875      1
  5898  5875  5876      1
  5899  5876  5880      1
  5900  5876  5881      1
  5901  5876  5882      1
  5902  5883  5884      1
  5903  5883  5889      1
  5904  5883  5890      1
  5905  5884  5885      1
  5906  5884  5891      1
  5907  5884  5895      1
  5908  5885  5886      2
  5909  5885  5887      1
  5910  5887  5888      1
  5911  5888  5892      1
  5912  5888  5893      1
  5913  5888  5894      1
  5914  5895  5896      1
  5915  5895  5901      1
  5916  5895  5902      1
  5917  5896  5897      1
  5918  5896  5903      1
  5919  5896  5907      1
  5920  5897  5898      2
  5921  5897  5899      1
  5922  5899  5900      1
  5923  5900  5904      1
  5924  5900  5905      1
  5925  5900  5906      1
  5926  5907  5908      1
  5927  5907  5913      1
  5928  5907  5914      1
  5929  5908  5909      1
  5930  5908  5915      1
  5931  5908  5919      1
  5932  5909  5910      2
  5933  5909  5911      1
  5934  5911  5912      1
  5935  5912  5916      1
  5936  5912  5917      1
  5937  5912  5918      1
  5938  5919  5920      1
  5939  5919  5925      1
  5940  5919  5926      1
  5941  5920  5921      1
  5942  5920  5927      1
  5943  5920  5931      1
  5944  5921  5922      2
  5945  5921  5923      1
  5946  5923  5924      1
  5947  5924  5928      1
  5948  5924  5929      1
  5949  5924  5930      1
  5950  5931  5932      1
  5951  5931  5937      1
  5952  5931  5938      1
  5953  5932  5933      1
  5954  5932  5939      1
  5955  5932  5943      1
  5956  5933  5934      2
  5957  5933  5935      1
  5958  5935  5936      1
  5959  5936  5940      1
  5960  5936  5941      1
  5961  5936  5942      1
  5962  5943  5944      1
  5963  5943  5949      1
  5964  5943  5950      1
  5965  5944  5945      1
  5966  5944  5951      1
  5967  5944  5955      1
  5968  5945  5946      2
  5969  5945  5947      1
  5970  5947  5948      1
  5971  5948  5952      1
  5972  5948  5953      1
  5973  5948  5954      1
  5974  5955  5956      1
  5975  5955  5961      1
  5976  5955  5962      1
  5977  5956  5957      1
  5978  5956  5963      1
  5979  5956  5967      1
  5980  5957  5958      2
  5981  5957  5959      1
  5982  5959  5960      1
  5983  5960  5964      1
  5984  5960  5965      1
  5985  5960  5966      1
  5986  5967  5968      1
  5987  5967  5973      1
  5988  5967  5974      1
  5989  5968  5969      1
  5990  5968  5975      1
  5991  5968  5979      1
  5992  5969  5970      2
  5993  5969  5971      1
  5994  5971  5972      1
  5995  5972  5976      1
  5996  5972  5977      1
  5997  5972  5978      1
  5998  5979  5980      1
  5999  5979  5985      1
  6000  5979  5986      1
  6001  5980  5981      1
  6002  5980  5987      1
  6003  5980  5991      1
  6004  5981  5982      2
  6005  5981  5983      1
  6006  5983  5984      1
  6007  5984  5988      1
  6008  5984  5989      1
  6009  5984  5990      1
  6010  5991  5992      1
  6011  5991  5997      1
  6012  5991  5998      1
  6013  5992  5993      1
  6014  5992  5999      1
  6015  5992  6003      1
  6016  5993  5994      2
  6017  5993  5995      1
  6018  5995  5996      1
  6019  5996  6000      1
  6020  5996  6001      1
  6021  5996  6002      1
  6022  6003  6004      1
  6023  6003  6009      1
  6024  6003  6010      1
  6025  6004  6005      1
  6026  6004  6011      1
  6027  6004  6015      1
  6028  6005  6006      2
  6029  6005  6007      1
  6030  6007  6008      1
  6031  6008  6012      1
  6032  6008  6013      1
  6033  6008  6014      1
  6034  6015  6016      1
  6035  6015  6021      1
  6036  6015  6022      1
  6037  6016  6017      1
  6038  6016  6023      1
  6039  6016  6027      1
  6040  6017  6018      2
  6041  6017  6019      1
  6042  6019  6020      1
  6043  6020  6024      1
  6044  6020  6025      1
  6045  6020  6026      1
  6046  6027  6028      1
  6047  6027  6033      1
  6048  6027  6034      1
  6049  6028  6029      1
  6050  6028  6035      1
  6051  6028  6039      1
  6052  6029  6030      2
  6053  6029  6031      1
  6054  6031  6032      1
  6055  6032  6036      1
  6056  6032  6037      1
  6057  6032  6038      1
  6058  6039  6040      1
  6059  6039  6045      1
  6060  6039  6046      1
  6061  6040  6041      1
  6062  6040  6047      1
  6063  6040  6051      1
  6064  6041  6042      2
  6065  6041  6043      1
  6066  6043  6044      1
  6067  6044  6048      1
  6068  6044  6049      1
  6069  6044  6050      1
  6070  6051  6052      1
  6071  6051  6057      1
  6072  6051  6058      1
  6073  6052  6053      1
  6074  6052  6059      1
  6075  6052  6063      1
  6076  6053  6054      2
  6077  6053  6055      1
  6078  6055  6056      1
  6079  6056  6060      1
  6080  6056  6061      1
  6081  6056  6062      1
  6082  6063  6064      1
  6083  6063  6069      1
  6084  6063  6070      1
  6085  6064  6065      1
  6086  6064  6071      1
  6087  6064  6075      1
  6088  6065  6066      2
  6089  6065  6067      1
  6090  6067  6068      1
  6091  6068  6072      1
  6092  6068  6073      1
  6093  6068  6074      1
  6094  6075  6076      1
  6095  6075  6081      1
  6096  6075  6082      1
  6097  6076  6077      1
  6098  6076  6083      1
  6099  6077  6078      2
  6100  6077  6079      1
  6101  6079  6080      1
  6102  6080  6084      1
  6103  6080  6085      1
  6104  6080  6086      1
  6105    10  1755      1
  6106   544  1876      1
  6107   547  1887      1
  6108   891  2272      1
  6109   888  2283      1
  6110   200  2512      1
  6111   203  2523      1
  6112   372  2728      1
  6113   375  2739      1
  6114    31  2884      1
  6115    28  2895      1
  6116  1579  3160      1
  6117  1576  3171      1
  6118   719  3676      1
  6119   716  3687      1
  6120  1235  4084      1
  6121  1232  4095      1
  6122  1060  4636      1
  6123  1063  4647      1
  6124  1407  5272      1
  6125  1404  5283      1
  6126  1748  6076      1
