###
### Created by PolyChef-cpp17 on Mon Apr 14 15:16:20 2025
###

@<TRIPOS>MOLECULE
NO_INFO
6672 6672 1 0 0
SMALL
USER_CHARGES


@<TRIPOS>ATOM
      1 C          59.7960   46.7746   14.9805 C.3       0      C_A    0.0000
      2 C          59.5640   47.6069   13.6747 C.3       0      C_A    0.0000
      3 C          59.0426   49.0548   13.8033 C.2       0      C_A    0.0000
      4 C          60.0351   45.2895   14.5707 C.2       0      C_A    0.0000
      5 C          58.5491   46.8084   15.9016 C.3       0      C_A    0.0000
      6 S          61.2826   47.3397   15.9299 S         0      C_A    0.0000
      7 S          60.7978   49.1954   16.5590 S         0      C_A    0.0000
      8 C          61.8324   49.5886   18.0244 C.3       0      C_A    0.0000
      9 C          61.5548   48.6696   19.2552 C.3       0      C_A    0.0000
     10 C          61.3518   51.0216   18.4159 C.3       0      C_A    0.0000
     11 C          63.3338   49.7202   17.6414 C.2       0      C_A    0.0000
     12 C          60.0926   48.2066   19.4369 C.2       0      C_A    0.0000
     13 S          61.0827   47.6623   12.6420 S         0      C_A    0.0000
     14 S          62.6133   47.1767   19.3327 S         0      C_A    0.0000
     15 H          58.7747   47.0662   13.1002 H         0      C_A    0.0000
     16 H          58.2965   49.1374   14.6293 H         0      C_A    0.0000
     17 H          59.8672   49.7683   14.0415 H         0      C_A    0.0000
     18 H          60.9966   45.2045   14.0090 H         0      C_A    0.0000
     19 H          59.2337   44.9757   13.8570 H         0      C_A    0.0000
     20 H          58.2875   47.8216   16.2774 H         0      C_A    0.0000
     21 H          58.6839   46.1975   16.8230 H         0      C_A    0.0000
     22 H          57.6517   46.4170   15.3669 H         0      C_A    0.0000
     23 H          61.8405   49.2674   20.1531 H         0      C_A    0.0000
     24 H          61.9138   51.4264   19.2892 H         0      C_A    0.0000
     25 H          61.4832   51.7616   17.5927 H         0      C_A    0.0000
     26 H          60.2726   51.0493   18.6951 H         0      C_A    0.0000
     27 H          63.8460   50.3286   18.4245 H         0      C_A    0.0000
     28 H          63.8461   48.7319   17.6514 H         0      C_A    0.0000
     29 H          59.3842   48.9759   19.0478 H         0      C_A    0.0000
     30 H          59.8934   47.2806   18.8461 H         0      C_A    0.0000
     31 H          60.5746   48.3235   11.5816 H         0      C_A    0.0000
     32 H          62.5626   46.9944   20.6664 H         0      C_A    0.0000
     33 C          16.5241   45.0231    7.6579 C.3       1      C_B    0.0000
     34 C          16.1792   43.8094    6.7308 C.3       1      C_B    0.0000
     35 C          14.7898   43.1486    6.8635 C.2       1      C_B    0.0000
     36 C          18.0517   45.3084    7.5321 C.2       1      C_B    0.0000
     37 C          16.2320   44.6989    9.1459 C.3       1      C_B    0.0000
     38 S          15.6242   46.5676    7.1726 S         1      C_B    0.0000
     39 S          13.6835   46.1510    7.5387 S         1      C_B    0.0000
     40 C          12.7912   47.7410    7.7591 C.3       1      C_B    0.0000
     41 C          13.2608   48.5585    9.0031 C.3       1      C_B    0.0000
     42 C          11.3274   47.2817    8.0494 C.3       1      C_B    0.0000
     43 C          12.7404   48.5526    6.4337 C.2       1      C_B    0.0000
     44 C          13.6895   47.7299   10.2340 C.2       1      C_B    0.0000
     45 S          16.4144   44.2371    4.9594 S         1      C_B    0.0000
     46 S          14.6054   49.7525    8.6542 S         1      C_B    0.0000
     47 H          16.9073   43.0050    6.9919 H         1      C_B    0.0000
     48 H          14.4654   43.1148    7.9308 H         1      C_B    0.0000
     49 H          14.0088   43.7200    6.3073 H         1      C_B    0.0000
     50 H          18.2833   45.6683    6.5006 H         1      C_B    0.0000
     51 H          18.6121   44.3489    7.6557 H         1      C_B    0.0000
     52 H          15.1616   44.4944    9.3660 H         1      C_B    0.0000
     53 H          16.4987   45.5403    9.8251 H         1      C_B    0.0000
     54 H          16.8099   43.8038    9.4764 H         1      C_B    0.0000
     55 H          12.3899   49.1900    9.2998 H         1      C_B    0.0000
     56 H          10.6369   48.1467    8.1812 H         1      C_B    0.0000
     57 H          10.8971   46.6640    7.2274 H         1      C_B    0.0000
     58 H          11.2475   46.6700    8.9782 H         1      C_B    0.0000
     59 H          11.8894   49.2724    6.4929 H         1      C_B    0.0000
     60 H          13.6508   49.1798    6.3035 H         1      C_B    0.0000
     61 H          13.1178   46.7728   10.2835 H         1      C_B    0.0000
     62 H          14.7652   47.4403   10.1622 H         1      C_B    0.0000
     63 H          16.1596   43.0230    4.4292 H         1      C_B    0.0000
     64 H          14.3381   50.6151    9.6537 H         1      C_B    0.0000
     65 C          15.0424   18.7734   36.6418 C.3       2      C_C    0.0000
     66 C          13.7281   18.2517   35.9695 C.3       2      C_C    0.0000
     67 C          12.3746   18.5859   36.6336 C.2       2      C_C    0.0000
     68 C          16.2502   18.0672   35.9538 C.2       2      C_C    0.0000
     69 C          15.0886   18.4117   38.1490 C.3       2      C_C    0.0000
     70 S          15.2705   20.5999   36.4362 S         2      C_C    0.0000
     71 S          13.7646   21.4148   37.5051 S         2      C_C    0.0000
     72 C          14.2455   23.1304   37.9505 C.3       2      C_C    0.0000
     73 C          15.4870   23.2109   38.8931 C.3       2      C_C    0.0000
     74 C          13.0199   23.6321   38.7775 C.3       2      C_C    0.0000
     75 C          14.3279   24.0421   36.6934 C.2       2      C_C    0.0000
     76 C          15.6269   22.0709   39.9256 C.2       2      C_C    0.0000
     77 S          13.6220   18.7838   34.2140 S         2      C_C    0.0000
     78 S          17.0889   23.3520   38.0160 S         2      C_C    0.0000
     79 H          13.7920   17.1378   35.9900 H         2      C_C    0.0000
     80 H          12.4569   18.5486   37.7460 H         2      C_C    0.0000
     81 H          12.0312   19.6149   36.3704 H         2      C_C    0.0000
     82 H          16.3262   18.4023   34.8913 H         2      C_C    0.0000
     83 H          16.0545   16.9670   35.9156 H         2      C_C    0.0000
     84 H          14.2801   18.8767   38.7541 H         2      C_C    0.0000
     85 H          16.0301   18.7489   38.6390 H         2      C_C    0.0000
     86 H          15.0108   17.3083   38.2935 H         2      C_C    0.0000
     87 H          15.3838   24.1709   39.4525 H         2      C_C    0.0000
     88 H          13.1426   24.6903   39.1055 H         2      C_C    0.0000
     89 H          12.0657   23.5946   38.2025 H         2      C_C    0.0000
     90 H          12.8539   23.0324   39.7027 H         2      C_C    0.0000
     91 H          14.2224   25.1041   37.0201 H         2      C_C    0.0000
     92 H          15.3275   23.9790   36.2078 H         2      C_C    0.0000
     93 H          14.6234   21.6897   40.2304 H         2      C_C    0.0000
     94 H          16.1640   21.1982   39.4827 H         2      C_C    0.0000
     95 H          12.4926   18.1267   33.8781 H         2      C_C    0.0000
     96 H          17.7722   23.9727   38.9970 H         2      C_C    0.0000
     97 C          25.8202   79.2596    5.8833 C.3       3      C_D    0.0000
     98 C          26.3613   77.9194    5.2810 C.3       3      C_D    0.0000
     99 C          27.8401   77.8498    4.8416 C.2       3      C_D    0.0000
    100 C          24.2667   79.1585    5.9686 C.2       3      C_D    0.0000
    101 C          26.1588   80.4669    4.9711 C.3       3      C_D    0.0000
    102 S          26.4552   79.5787    7.5938 S         3      C_D    0.0000
    103 S          28.4373   79.8674    7.3450 S         3      C_D    0.0000
    104 C          29.0561   80.8364    8.7771 C.3       3      C_D    0.0000
    105 C          28.4564   82.2745    8.8696 C.3       3      C_D    0.0000
    106 C          30.5749   81.0025    8.4553 C.3       3      C_D    0.0000
    107 C          28.9754   80.0162   10.0958 C.2       3      C_D    0.0000
    108 C          28.1673   82.9743    7.5235 C.2       3      C_D    0.0000
    109 S          26.0624   76.5091    6.4202 S         3      C_D    0.0000
    110 S          26.9347   82.3908    9.8826 S         3      C_D    0.0000
    111 H          25.7747   77.7411    4.3485 H         3      C_D    0.0000
    112 H          28.1637   78.8127    4.3792 H         3      C_D    0.0000
    113 H          28.5178   77.6652    5.7091 H         3      C_D    0.0000
    114 H          23.9811   78.3793    6.7158 H         3      C_D    0.0000
    115 H          23.8712   78.8012    4.9857 H         3      C_D    0.0000
    116 H          27.2479   80.6536    4.8480 H         3      C_D    0.0000
    117 H          25.7564   81.4265    5.3682 H         3      C_D    0.0000
    118 H          25.7351   80.3217    3.9495 H         3      C_D    0.0000
    119 H          29.2112   82.8852    9.4197 H         3      C_D    0.0000
    120 H          31.1138   81.5558    9.2589 H         3      C_D    0.0000
    121 H          31.1023   80.0269    8.3433 H         3      C_D    0.0000
    122 H          30.7525   81.5670    7.5102 H         3      C_D    0.0000
    123 H          29.6966   80.4524   10.8275 H         3      C_D    0.0000
    124 H          27.9746   80.1093   10.5742 H         3      C_D    0.0000
    125 H          28.8882   82.6374    6.7412 H         3      C_D    0.0000
    126 H          27.1539   82.7007    7.1437 H         3      C_D    0.0000
    127 H          26.5140   75.5166    5.6259 H         3      C_D    0.0000
    128 H          27.0550   83.6861   10.2323 H         3      C_D    0.0000
    129 C          54.8314   77.3903    7.2845 C.3       4      C_E    0.0000
    130 C          54.0870   78.0913    8.4702 C.3       4      C_E    0.0000
    131 C          54.5615   77.8082    9.9122 C.2       4      C_E    0.0000
    132 C          53.9906   77.6083    5.9898 C.2       4      C_E    0.0000
    133 C          54.9454   75.8609    7.5136 C.3       4      C_E    0.0000
    134 S          56.5163   78.0985    6.9837 S         4      C_E    0.0000
    135 S          57.5662   77.6093    8.6368 S         4      C_E    0.0000
    136 C          59.3510   77.6298    8.2049 C.3       4      C_E    0.0000
    137 C          59.7548   76.5543    7.1482 C.3       4      C_E    0.0000
    138 C          60.0388   77.2227    9.5462 C.3       4      C_E    0.0000
    139 C          59.8410   79.0698    7.8814 C.2       4      C_E    0.0000
    140 C          58.9868   75.2162    7.2181 C.2       4      C_E    0.0000
    141 S          54.0580   79.9155    8.2524 S         4      C_E    0.0000
    142 S          59.6767   77.1380    5.4137 S         4      C_E    0.0000
    143 H          53.0345   77.7221    8.4353 H         4      C_E    0.0000
    144 H          54.8659   76.7407   10.0288 H         4      C_E    0.0000
    145 H          55.4502   78.4278   10.1810 H         4      C_E    0.0000
    146 H          53.9902   78.6918    5.7197 H         4      C_E    0.0000
    147 H          52.9247   77.3437    6.1996 H         4      C_E    0.0000
    148 H          55.5448   75.5773    8.4060 H         4      C_E    0.0000
    149 H          55.4465   75.3398    6.6664 H         4      C_E    0.0000
    150 H          53.9358   75.4036    7.6398 H         4      C_E    0.0000
    151 H          60.8353   76.3406    7.3277 H         4      C_E    0.0000
    152 H          61.1501   77.2159    9.4603 H         4      C_E    0.0000
    153 H          59.7969   77.9168   10.3841 H         4      C_E    0.0000
    154 H          59.7426   76.2030    9.8862 H         4      C_E    0.0000
    155 H          60.9479   79.1055    8.0197 H         4      C_E    0.0000
    156 H          59.6670   79.3303    6.8133 H         4      C_E    0.0000
    157 H          58.6827   74.9905    8.2678 H         4      C_E    0.0000
    158 H          58.0393   75.2714    6.6304 H         4      C_E    0.0000
    159 H          53.2928   80.2281    9.3186 H         4      C_E    0.0000
    160 H          60.5881   76.2885    4.9013 H         4      C_E    0.0000
    161 C          90.9650   37.0464   35.6827 C.3       5      C_F    0.0000
    162 C          91.8585   37.1786   36.9666 C.3       5      C_F    0.0000
    163 C          91.1823   37.6922   38.2583 C.3       5      C_F    0.0000
    164 C          91.8111   36.3420   34.5752 C.2       5      C_F    0.0000
    165 H          91.8319   37.4825   39.1374 H         5      C_F    0.0000
    166 C          89.7278   36.1607   35.9602 C.3       5      C_F    0.0000
    167 S          90.4542   38.6955   35.0315 S         5      C_F    0.0000
    168 S          89.0501   39.3944   36.3072 S         5      C_F    0.0000
    169 C          87.9697   40.5288   35.3419 C.3       5      C_F    0.0000
    170 C          87.0708   39.7774   34.3051 C.3       5      C_F    0.0000
    171 C          87.0162   41.1682   36.3879 C.3       5      C_F    0.0000
    172 C          88.7976   41.6811   34.7135 C.2       5      C_F    0.0000
    173 C          86.4517   38.4441   34.7879 C.2       5      C_F    0.0000
    174 S          93.3229   38.2536   36.6472 S         5      C_F    0.0000
    175 S          87.9092   39.4467   32.7063 S         5      C_F    0.0000
    176 H          92.2292   36.1522   37.2028 H         5      C_F    0.0000
    177 H          90.2014   37.1843   38.4027 H         5      C_F    0.0000
    178 H          91.0146   38.7928   38.1894 H         5      C_F    0.0000
    179 H          92.6451   37.0064   34.2452 H         5      C_F    0.0000
    180 H          92.2993   35.4360   35.0103 H         5      C_F    0.0000
    181 H          89.0574   36.5566   36.7512 H         5      C_F    0.0000
    182 H          89.0767   36.0460   35.0671 H         5      C_F    0.0000
    183 H          90.0421   35.1421   36.2854 H         5      C_F    0.0000
    184 H          86.2279   40.4763   34.0581 H         5      C_F    0.0000
    185 H          86.3899   41.9714   35.9374 H         5      C_F    0.0000
    186 H          87.5589   41.6289   37.2434 H         5      C_F    0.0000
    187 H          86.3141   40.4348   36.8433 H         5      C_F    0.0000
    188 H          88.0941   42.3789   34.1946 H         5      C_F    0.0000
    189 H          89.4787   41.2915   33.9217 H         5      C_F    0.0000
    190 H          86.1184   38.5305   35.8474 H         5      C_F    0.0000
    191 H          87.2146   37.6323   34.7720 H         5      C_F    0.0000
    192 H          93.9898   38.0151   37.7949 H         5      C_F    0.0000
    193 H          86.8047   39.2044   31.9759 H         5      C_F    0.0000
    194 C          26.9186   16.5556   40.6490 C.3       6      C_G    0.0000
    195 C          26.4342   16.3891   42.1328 C.3       6      C_G    0.0000
    196 C          24.9347   16.0949   42.3665 C.3       6      C_G    0.0000
    197 C          28.4075   17.0258   40.6762 C.2       6      C_G    0.0000
    198 H          24.6742   16.2705   43.4342 H         6      C_G    0.0000
    199 C          26.0976   17.6445   39.9193 C.3       6      C_G    0.0000
    200 S          26.8534   14.9601   39.7245 S         6      C_G    0.0000
    201 S          24.8972   14.5967   39.3658 S         6      C_G    0.0000
    202 C          24.8161   13.5718   37.8396 C.3       6      C_G    0.0000
    203 C          25.2040   14.3687   36.5504 C.3       6      C_G    0.0000
    204 C          23.3209   13.1775   37.6951 C.3       6      C_G    0.0000
    205 C          25.6212   12.2564   38.0123 C.2       6      C_G    0.0000
    206 C          24.6678   15.8175   36.4640 C.2       6      C_G    0.0000
    207 S          27.3946   15.0748   43.0001 S         6      C_G    0.0000
    208 S          27.0118   14.4324   36.2397 S         6      C_G    0.0000
    209 H          26.6387   17.3602   42.6446 H         6      C_G    0.0000
    210 H          24.3116   16.7609   41.7269 H         6      C_G    0.0000
    211 H          24.7102   15.0325   42.1115 H         6      C_G    0.0000
    212 H          29.0617   16.2139   41.0746 H         6      C_G    0.0000
    213 H          28.5083   17.8760   41.3942 H         6      C_G    0.0000
    214 H          25.0116   17.4246   39.8560 H         6      C_G    0.0000
    215 H          26.4204   17.7873   38.8657 H         6      C_G    0.0000
    216 H          26.1973   18.6240   40.4416 H         6      C_G    0.0000
    217 H          24.7756   13.7934   35.6870 H         6      C_G    0.0000
    218 H          23.1654   12.4489   36.8673 H         6      C_G    0.0000
    219 H          22.9064   12.7082   38.6152 H         6      C_G    0.0000
    220 H          22.6596   14.0467   37.4827 H         6      C_G    0.0000
    221 H          25.4894   11.6383   37.0896 H         6      C_G    0.0000
    222 H          26.7132   12.4685   38.0830 H         6      C_G    0.0000
    223 H          23.6255   15.8709   36.8535 H         6      C_G    0.0000
    224 H          25.2714   16.4951   37.1103 H         6      C_G    0.0000
    225 H          26.9394   15.2978   44.2498 H         6      C_G    0.0000
    226 H          26.9543   14.7853   34.9419 H         6      C_G    0.0000
    227 C          28.2803   75.4214   28.5046 C.3       7      C_H    0.0000
    228 C          26.8766   75.2442   27.8246 C.3       7      C_H    0.0000
    229 C          26.3738   76.3878   26.9142 C.3       7      C_H    0.0000
    230 C          28.4842   74.2419   29.5075 C.2       7      C_H    0.0000
    231 H          25.2838   76.2705   26.7224 H         7      C_H    0.0000
    232 C          28.3394   76.7384   29.3133 C.3       7      C_H    0.0000
    233 S          29.6517   75.3503   27.2722 S         7      C_H    0.0000
    234 S          29.5854   77.0960   26.2545 S         7      C_H    0.0000
    235 C          31.2942   77.4326   25.6608 C.3       7      C_H    0.0000
    236 C          32.2772   77.8091   26.8182 C.3       7      C_H    0.0000
    237 C          31.1676   78.6839   24.7497 C.3       7      C_H    0.0000
    238 C          31.8108   76.2702   24.7719 C.2       7      C_H    0.0000
    239 C          31.7073   78.7425   27.9126 C.2       7      C_H    0.0000
    240 S          26.8094   73.6863   26.8393 S         7      C_H    0.0000
    241 S          33.0111   76.3549   27.6638 S         7      C_H    0.0000
    242 H          26.1311   75.1615   28.6517 H         7      C_H    0.0000
    243 H          26.5519   77.3718   27.4050 H         7      C_H    0.0000
    244 H          26.9151   76.3651   25.9391 H         7      C_H    0.0000
    245 H          28.5822   73.2773   28.9545 H         7      C_H    0.0000
    246 H          27.5682   74.1376   30.1388 H         7      C_H    0.0000
    247 H          28.1867   77.6515   28.7011 H         7      C_H    0.0000
    248 H          29.3219   76.8902   29.8096 H         7      C_H    0.0000
    249 H          27.5539   76.7465   30.1039 H         7      C_H    0.0000
    250 H          33.1415   78.3372   26.3343 H         7      C_H    0.0000
    251 H          32.1254   78.9134   24.2298 H         7      C_H    0.0000
    252 H          30.3951   78.5658   23.9573 H         7      C_H    0.0000
    253 H          30.8805   79.6024   25.3082 H         7      C_H    0.0000
    254 H          32.8217   76.5470   24.3814 H         7      C_H    0.0000
    255 H          31.9612   75.3468   25.3779 H         7      C_H    0.0000
    256 H          31.0636   79.5294   27.4570 H         7      C_H    0.0000
    257 H          31.0486   78.1718   28.6066 H         7      C_H    0.0000
    258 H          25.4878   73.6863   26.5707 H         7      C_H    0.0000
    259 H          34.0395   76.9944   28.2517 H         7      C_H    0.0000
    260 C          77.0195   22.8034   12.3250 C.3       8      C_I    0.0000
    261 C          77.3471   24.1816   13.0013 C.3       8      C_I    0.0000
    262 C          78.6902   24.8550   12.6378 C.3       8      C_I    0.0000
    263 C          75.7189   22.2400   12.9805 C.2       8      C_I    0.0000
    264 H          78.9228   25.6603   13.3700 H         8      C_I    0.0000
    265 C          78.1519   21.7810   12.5790 C.3       8      C_I    0.0000
    266 S          76.6997   22.9870   10.5171 S         8      C_I    0.0000
    267 S          78.4984   23.3261    9.6585 S         8      C_I    0.0000
    268 C          78.3879   22.7108    7.9278 C.3       8      C_I    0.0000
    269 C          78.3146   21.1505    7.8404 C.3       8      C_I    0.0000
    270 C          79.7227   23.1392    7.2594 C.3       8      C_I    0.0000
    271 C          77.2428   23.4221    7.1592 C.2       8      C_I    0.0000
    272 C          79.2332   20.3748    8.8141 C.2       8      C_I    0.0000
    273 S          76.0104   25.4115   12.6809 S         8      C_I    0.0000
    274 S          76.6169   20.4807    8.0352 S         8      C_I    0.0000
    275 H          77.3868   23.9942   14.1014 H         8      C_I    0.0000
    276 H          79.5108   24.1017   12.6544 H         8      C_I    0.0000
    277 H          78.6288   25.3027   11.6180 H         8      C_I    0.0000
    278 H          74.8433   22.8775   12.7109 H         8      C_I    0.0000
    279 H          75.8121   22.3073   14.0919 H         8      C_I    0.0000
    280 H          79.1372   22.0877   12.1702 H         8      C_I    0.0000
    281 H          77.9464   20.7930   12.1140 H         8      C_I    0.0000
    282 H          78.2938   21.6196   13.6726 H         8      C_I    0.0000
    283 H          78.6203   20.8817    6.7943 H         8      C_I    0.0000
    284 H          79.7223   22.9273    6.1660 H         8      C_I    0.0000
    285 H          79.9345   24.2258    7.3735 H         8      C_I    0.0000
    286 H          80.6096   22.6187    7.6842 H         8      C_I    0.0000
    287 H          77.2558   23.0669    6.0986 H         8      C_I    0.0000
    288 H          76.2491   23.1245    7.5674 H         8      C_I    0.0000
    289 H          80.2240   20.8771    8.8985 H         8      C_I    0.0000
    290 H          78.8010   20.3754    9.8410 H         8      C_I    0.0000
    291 H          76.4316   26.3764   13.5238 H         8      C_I    0.0000
    292 H          76.8492   19.2606    7.5160 H         8      C_I    0.0000
    293 C          85.5148   10.2039   18.1549 C.3       9      C_J    0.0000
    294 C          84.0859   10.0171   18.7772 C.3       9      C_J    0.0000
    295 C          83.6092   11.0714   19.8023 C.3       9      C_J    0.0000
    296 C          85.8419    8.9352   17.3052 C.2       9      C_J    0.0000
    297 H          82.7256   10.6879   20.3599 H         9      C_J    0.0000
    298 C          86.5889   10.3148   19.2622 C.3       9      C_J    0.0000
    299 S          85.5855   11.6639   17.0288 S         9      C_J    0.0000
    300 S          85.5583   13.2965   18.2210 S         9      C_J    0.0000
    301 C          86.4224   14.6393   17.3066 C.3       9      C_J    0.0000
    302 C          87.9629   14.3970   17.1821 C.3       9      C_J    0.0000
    303 C          86.2332   15.9104   18.1788 C.3       9      C_J    0.0000
    304 C          85.7332   14.9135   15.9435 C.2       9      C_J    0.0000
    305 C          88.6618   13.8288   18.4402 C.2       9      C_J    0.0000
    306 S          82.7986    9.9083   17.4606 S         9      C_J    0.0000
    307 S          88.4284   13.3277   15.7649 S         9      C_J    0.0000
    308 H          84.1025    9.0440   19.3245 H         9      C_J    0.0000
    309 H          84.4258   11.2953   20.5263 H         9      C_J    0.0000
    310 H          83.3221   12.0122   19.2764 H         9      C_J    0.0000
    311 H          85.1734    8.8851   16.4128 H         9      C_J    0.0000
    312 H          85.6115    8.0232   17.9082 H         9      C_J    0.0000
    313 H          86.4455   11.1776   19.9455 H         9      C_J    0.0000
    314 H          87.6130   10.4449   18.8513 H         9      C_J    0.0000
    315 H          86.5907    9.3989   19.8972 H         9      C_J    0.0000
    316 H          88.4196   15.3980   16.9599 H         9      C_J    0.0000
    317 H          86.6120   16.8227   17.6644 H         9      C_J    0.0000
    318 H          85.1675   16.1064   18.4323 H         9      C_J    0.0000
    319 H          86.7638   15.8519   19.1550 H         9      C_J    0.0000
    320 H          86.2489   15.7773   15.4547 H         9      C_J    0.0000
    321 H          85.8669   14.0490   15.2527 H         9      C_J    0.0000
    322 H          88.2497   14.3008   19.3613 H         9      C_J    0.0000
    323 H          88.4597   12.7376   18.5384 H         9      C_J    0.0000
    324 H          81.7590    9.5440   18.2387 H         9      C_J    0.0000
    325 H          89.7311   13.6630   15.7127 H         9      C_J    0.0000
    326 C          89.6858   69.7404   20.0961 C.3      10      C_K    0.0000
    327 C          88.7519   69.7000   18.8350 C.3      10      C_K    0.0000
    328 C          87.2329   69.5437   19.0750 C.3      10      C_K    0.0000
    329 C          91.1309   70.0878   19.6169 C.2      10      C_K    0.0000
    330 H          86.6725   69.8013   18.1486 H        10      C_K    0.0000
    331 C          89.2396   70.8489   21.0780 C.3      10      C_K    0.0000
    332 S          89.7575   68.1049   20.9474 S        10      C_K    0.0000
    333 S          87.9833   67.8829   21.8909 S        10      C_K    0.0000
    334 C          88.2811   66.7818   23.3349 C.3      10      C_K    0.0000
    335 C          89.1238   67.4685   24.4600 C.3      10      C_K    0.0000
    336 C          86.8736   66.5037   23.9296 C.3      10      C_K    0.0000
    337 C          88.8631   65.4170   22.8800 C.2      10      C_K    0.0000
    338 C          88.7822   68.9489   24.7525 C.2      10      C_K    0.0000
    339 S          89.2659   68.3636   17.6722 S        10      C_K    0.0000
    340 S          90.9362   67.3658   24.1896 S        10      C_K    0.0000
    341 H          88.8800   70.6790   18.3134 H        10      C_K    0.0000
    342 H          86.9054   70.2205   19.8970 H        10      C_K    0.0000
    343 H          86.9977   68.4903   19.3565 H        10      C_K    0.0000
    344 H          91.5485   69.2494   19.0098 H        10      C_K    0.0000
    345 H          91.0853   70.9669   18.9287 H        10      C_K    0.0000
    346 H          88.2107   70.7155   21.4723 H        10      C_K    0.0000
    347 H          89.8850   70.9038   21.9808 H        10      C_K    0.0000
    348 H          89.2660   71.8455   20.5796 H        10      C_K    0.0000
    349 H          88.9308   66.8814   25.3970 H        10      C_K    0.0000
    350 H          86.9131   65.7437   24.7427 H        10      C_K    0.0000
    351 H          86.1515   66.1237   23.1728 H        10      C_K    0.0000
    352 H          86.3972   67.4104   24.3641 H        10      C_K    0.0000
    353 H          88.9649   64.7595   23.7790 H        10      C_K    0.0000
    354 H          89.8946   65.5426   22.4765 H        10      C_K    0.0000
    355 H          87.6807   69.1099   24.7114 H        10      C_K    0.0000
    356 H          89.2179   69.6110   23.9695 H        10      C_K    0.0000
    357 H          88.4695   68.6949   16.6354 H        10      C_K    0.0000
    358 H          91.3177   67.6468   25.4496 H        10      C_K    0.0000
    359 C          29.9663   65.6928    7.0664 C.3      11      C_L    0.0000
    360 C          29.9061   66.5120    5.7288 C.3      11      C_L    0.0000
    361 C          31.1785   66.5429    4.8516 C.3      11      C_L    0.0000
    362 C          28.6470   65.9613    7.8578 C.2      11      C_L    0.0000
    363 H          31.1011   67.3574    4.0970 H        11      C_L    0.0000
    364 C          31.1454   66.1638    7.9495 C.3      11      C_L    0.0000
    365 S          30.0702   63.8774    6.7531 S        11      C_L    0.0000
    366 S          31.9501   63.5258    6.0975 S        11      C_L    0.0000
    367 C          32.3577   61.7899    6.5520 C.3      11      C_L    0.0000
    368 C          32.5464   61.5926    8.0925 C.3      11      C_L    0.0000
    369 C          33.7334   61.5095    5.8881 C.3      11      C_L    0.0000
    370 C          31.3385   60.8001    5.9278 C.2      11      C_L    0.0000
    371 C          33.3086   62.7191    8.8301 C.2      11      C_L    0.0000
    372 S          28.5156   65.9375    4.6617 S        11      C_L    0.0000
    373 S          30.9747   61.3092    8.9969 S        11      C_L    0.0000
    374 H          29.7059   67.5728    6.0146 H        11      C_L    0.0000
    375 H          32.0755   66.7217    5.4875 H        11      C_L    0.0000
    376 H          31.2987   65.5699    4.3196 H        11      C_L    0.0000
    377 H          27.7762   65.5172    7.3189 H        11      C_L    0.0000
    378 H          28.4565   67.0619    7.8863 H        11      C_L    0.0000
    379 H          32.1418   66.0379    7.4771 H        11      C_L    0.0000
    380 H          31.2118   65.6031    8.9066 H        11      C_L    0.0000
    381 H          31.0407   67.2458    8.1956 H        11      C_L    0.0000
    382 H          33.1339   60.6443    8.2162 H        11      C_L    0.0000
    383 H          34.0304   60.4411    5.9916 H        11      C_L    0.0000
    384 H          33.7431   61.7390    4.7991 H        11      C_L    0.0000
    385 H          34.5594   62.1133    6.3251 H        11      C_L    0.0000
    386 H          31.6623   59.7582    6.1741 H        11      C_L    0.0000
    387 H          30.3329   60.9239    6.3924 H        11      C_L    0.0000
    388 H          34.1609   63.0825    8.2115 H        11      C_L    0.0000
    389 H          32.6454   63.6006    8.9858 H        11      C_L    0.0000
    390 H          28.5678   66.9164    3.7354 H        11      C_L    0.0000
    391 H          31.5090   60.7933   10.1196 H        11      C_L    0.0000
    392 C          50.6751   14.1236   15.6128 C.3      12      C_M    0.0000
    393 C          49.3585   14.9441   15.3725 C.3      12      C_M    0.0000
    394 C          49.3101   16.3919   15.9118 C.3      12      C_M    0.0000
    395 C          50.4195   12.6534   15.1525 C.2      12      C_M    0.0000
    396 H          48.2593   16.7586   15.9241 H        12      C_M    0.0000
    397 C          51.0358   14.0869   17.1163 C.3      12      C_M    0.0000
    398 S          52.0835   14.7832   14.6198 S        12      C_M    0.0000
    399 S          52.6377   16.5126   15.5081 S        12      C_M    0.0000
    400 C          54.4213   16.7595   15.1290 C.3      12      C_M    0.0000
    401 C          55.3479   15.7417   15.8727 C.3      12      C_M    0.0000
    402 C          54.7620   18.1699   15.6827 C.3      12      C_M    0.0000
    403 C          54.6614   16.7998   13.5963 C.2      12      C_M    0.0000
    404 C          54.9688   15.4295   17.3400 C.2      12      C_M    0.0000
    405 S          48.9373   15.0107   13.5780 S        12      C_M    0.0000
    406 S          55.5313   14.1379   14.9994 S        12      C_M    0.0000
    407 H          48.5412   14.3943   15.8984 H        12      C_M    0.0000
    408 H          49.7184   16.4265   16.9477 H        12      C_M    0.0000
    409 H          49.9174   17.0625   15.2594 H        12      C_M    0.0000
    410 H          50.2856   12.6132   14.0451 H        12      C_M    0.0000
    411 H          49.4539   12.2977   15.5877 H        12      C_M    0.0000
    412 H          51.2218   15.0868   17.5606 H        12      C_M    0.0000
    413 H          51.9634   13.5093   17.3182 H        12      C_M    0.0000
    414 H          50.2109   13.6222   17.7043 H        12      C_M    0.0000
    415 H          56.3740   16.1968   15.8740 H        12      C_M    0.0000
    416 H          55.7928   18.4844   15.4021 H        12      C_M    0.0000
    417 H          54.0741   18.9600   15.3070 H        12      C_M    0.0000
    418 H          54.7022   18.2286   16.7922 H        12      C_M    0.0000
    419 H          55.7433   17.0170   13.4142 H        12      C_M    0.0000
    420 H          54.4708   15.8005   13.1406 H        12      C_M    0.0000
    421 H          54.6350   16.3555   17.8615 H        12      C_M    0.0000
    422 H          54.1041   14.7280   17.3778 H        12      C_M    0.0000
    423 H          47.7088   15.5559   13.6896 H        12      C_M    0.0000
    424 H          56.6365   13.7144   15.6407 H        12      C_M    0.0000
    425 C          38.5246   33.9296   34.4306 C.3      13      C_N    0.0000
    426 C          37.4405   33.2133   33.5497 C.3      13      C_N    0.0000
    427 C          36.7890   34.0320   32.4119 C.3      13      C_N    0.0000
    428 C          39.1622   32.8623   35.3756 C.2      13      C_N    0.0000
    429 H          36.2597   33.3514   31.7081 H        13      C_N    0.0000
    430 C          39.6559   34.5099   33.5499 C.3      13      C_N    0.0000
    431 S          37.7843   35.2447   35.4921 S        13      C_N    0.0000
    432 S          37.3355   36.7801   34.2557 S        13      C_N    0.0000
    433 C          37.3934   38.3152   35.2687 C.3      13      C_N    0.0000
    434 C          38.8459   38.7052   35.6997 C.3      13      C_N    0.0000
    435 C          36.8828   39.4408   34.3284 C.3      13      C_N    0.0000
    436 C          36.4027   38.2303   36.4602 C.2      13      C_N    0.0000
    437 C          39.9429   38.5204   34.6244 C.2      13      C_N    0.0000
    438 S          36.0771   32.5403   34.5939 S        13      C_N    0.0000
    439 S          39.4175   37.8512   37.2203 S        13      C_N    0.0000
    440 H          37.9517   32.3533   33.0538 H        13      C_N    0.0000
    441 H          37.5703   34.5958   31.8526 H        13      C_N    0.0000
    442 H          36.0528   34.7550   32.8354 H        13      C_N    0.0000
    443 H          38.4111   32.5095   36.1221 H        13      C_N    0.0000
    444 H          39.4384   31.9617   34.7747 H        13      C_N    0.0000
    445 H          39.3135   35.2720   32.8193 H        13      C_N    0.0000
    446 H          40.4412   35.0213   34.1470 H        13      C_N    0.0000
    447 H          40.1479   33.7001   32.9630 H        13      C_N    0.0000
    448 H          38.8101   39.7946   35.9680 H        13      C_N    0.0000
    449 H          36.7563   40.4050   34.8712 H        13      C_N    0.0000
    450 H          35.8990   39.2043   33.8650 H        13      C_N    0.0000
    451 H          37.5701   39.6426   33.4770 H        13      C_N    0.0000
    452 H          36.4233   39.2061   37.0065 H        13      C_N    0.0000
    453 H          36.7358   37.4625   37.1964 H        13      C_N    0.0000
    454 H          39.5627   38.8275   33.6233 H        13      C_N    0.0000
    455 H          40.2188   37.4451   34.5306 H        13      C_N    0.0000
    456 H          35.4430   31.8244   33.6430 H        13      C_N    0.0000
    457 H          40.4392   38.6777   37.5121 H        13      C_N    0.0000
    458 C          32.7070   45.6098   27.1193 C.3      14      C_O    0.0000
    459 C          33.6960   44.4692   26.6890 C.3      14      C_O    0.0000
    460 C          33.5084   43.0783   27.3368 C.3      14      C_O    0.0000
    461 C          32.9711   46.8489   26.2064 C.2      14      C_O    0.0000
    462 H          34.0732   42.3111   26.7614 H        14      C_O    0.0000
    463 C          31.2379   45.1761   26.9054 C.3      14      C_O    0.0000
    464 S          32.9849   46.1336   28.8665 S        14      C_O    0.0000
    465 S          32.2536   44.6458   30.0236 S        14      C_O    0.0000
    466 C          31.7519   45.4096   31.6208 C.3      14      C_O    0.0000
    467 C          30.4877   46.3217   31.4884 C.3      14      C_O    0.0000
    468 C          31.3559   44.2171   32.5336 C.3      14      C_O    0.0000
    469 C          32.9538   46.1224   32.2956 C.2      14      C_O    0.0000
    470 C          29.3625   45.7886   30.5700 C.2      14      C_O    0.0000
    471 S          35.4488   44.9730   26.9646 S        14      C_O    0.0000
    472 S          30.8686   48.0354   30.9528 S        14      C_O    0.0000
    473 H          33.5489   44.3182   25.5924 H        14      C_O    0.0000
    474 H          32.4287   42.8040   27.3443 H        14      C_O    0.0000
    475 H          33.8869   43.0920   28.3859 H        14      C_O    0.0000
    476 H          33.9773   47.2807   26.4231 H        14      C_O    0.0000
    477 H          33.0076   46.5155   25.1406 H        14      C_O    0.0000
    478 H          30.9399   44.2842   27.4950 H        14      C_O    0.0000
    479 H          30.5132   45.9658   27.1989 H        14      C_O    0.0000
    480 H          31.0560   44.9286   25.8340 H        14      C_O    0.0000
    481 H          30.0655   46.4223   32.5235 H        14      C_O    0.0000
    482 H          31.1483   44.5482   33.5765 H        14      C_O    0.0000
    483 H          32.1493   43.4394   32.5979 H        14      C_O    0.0000
    484 H          30.4455   43.6827   32.1820 H        14      C_O    0.0000
    485 H          32.6202   46.5125   33.2894 H        14      C_O    0.0000
    486 H          33.2639   47.0165   31.7064 H        14      C_O    0.0000
    487 H          29.2389   44.6895   30.7032 H        14      C_O    0.0000
    488 H          29.6300   45.9391   29.4990 H        14      C_O    0.0000
    489 H          36.0461   43.9435   26.3304 H        14      C_O    0.0000
    490 H          29.7079   48.6004   31.3345 H        14      C_O    0.0000
    491 C          16.0955   72.8311   37.7469 C.2      15      C_P    0.0000
    492 C          14.7113   72.2243   38.1140 C.3      15      C_P    0.0000
    493 C          13.7644   73.3510   38.6434 C.3      15      C_P    0.0000
    494 C          12.3083   72.9254   38.9379 C.2      15      C_P    0.0000
    495 C          14.1090   71.5513   36.8603 C.3      15      C_P    0.0000
    496 S          14.4464   74.1357   40.1605 S        15      C_P    0.0000
    497 S          14.9501   70.9106   39.3873 S        15      C_P    0.0000
    498 H          15.9360   73.7110   37.0776 H        15      C_P    0.0000
    499 H          16.5965   73.2237   38.6632 H        15      C_P    0.0000
    500 H          13.7142   74.1360   37.8481 H        15      C_P    0.0000
    501 H          11.8703   72.4408   38.0344 H        15      C_P    0.0000
    502 H          12.2745   72.1683   39.7559 H        15      C_P    0.0000
    503 H          13.1459   71.0357   37.0644 H        15      C_P    0.0000
    504 H          14.7666   70.7577   36.4430 H        15      C_P    0.0000
    505 H          13.9314   72.2987   36.0540 H        15      C_P    0.0000
    506 H          13.6517   75.2240   40.1685 H        15      C_P    0.0000
    507 H          13.6659   70.5116   39.4844 H        15      C_P    0.0000
    508 C          80.8966   52.8476   44.2212 C.2      16      C_Q    0.0000
    509 C          79.7312   53.1448   43.2351 C.3      16      C_Q    0.0000
    510 C          80.0769   54.4033   42.3732 C.3      16      C_Q    0.0000
    511 C          78.9615   54.8989   41.4253 C.2      16      C_Q    0.0000
    512 C          78.4355   53.3780   44.0439 C.3      16      C_Q    0.0000
    513 S          81.5948   54.1281   41.3717 S        16      C_Q    0.0000
    514 S          79.4580   51.6668   42.1651 S        16      C_Q    0.0000
    515 H          81.1464   53.7846   44.7753 H        16      C_Q    0.0000
    516 H          81.8155   52.5668   43.6543 H        16      C_Q    0.0000
    517 H          80.2871   55.2396   43.0856 H        16      C_Q    0.0000
    518 H          78.0254   55.0697   42.0063 H        16      C_Q    0.0000
    519 H          78.7245   54.1282   40.6551 H        16      C_Q    0.0000
    520 H          77.5428   53.5309   43.3997 H        16      C_Q    0.0000
    521 H          78.1698   52.5100   44.6862 H        16      C_Q    0.0000
    522 H          78.5344   54.2680   44.7060 H        16      C_Q    0.0000
    523 H          81.8233   55.4142   41.0407 H        16      C_Q    0.0000
    524 H          78.3994   52.1331   41.4725 H        16      C_Q    0.0000
    525 C          60.9188   67.7380   34.8237 C.2      17      C_R    0.0000
    526 C          59.6044   67.2407   34.1574 C.3      17      C_R    0.0000
    527 C          58.3759   67.6814   35.0194 C.3      17      C_R    0.0000
    528 C          56.9998   67.1577   34.5501 C.2      17      C_R    0.0000
    529 C          59.6563   65.7017   34.0304 C.3      17      C_R    0.0000
    530 S          58.2748   69.5134   35.1469 S        17      C_R    0.0000
    531 S          59.4962   67.9342   32.4511 S        17      C_R    0.0000
    532 H          60.9181   67.4266   35.8963 H        17      C_R    0.0000
    533 H          60.9499   68.8533   34.8233 H        17      C_R    0.0000
    534 H          58.5381   67.2777   36.0498 H        17      C_R    0.0000
    535 H          57.0336   66.0470   34.4590 H        17      C_R    0.0000
    536 H          56.7485   67.5547   33.5389 H        17      C_R    0.0000
    537 H          58.7755   65.2795   33.5002 H        17      C_R    0.0000
    538 H          60.5309   65.3502   33.4405 H        17      C_R    0.0000
    539 H          59.7128   65.2213   35.0335 H        17      C_R    0.0000
    540 H          57.3984   69.5709   36.1689 H        17      C_R    0.0000
    541 H          58.3510   67.3283   32.0777 H        17      C_R    0.0000
    542 C          62.1846   85.5795   32.2182 C.2      18      C_S    0.0000
    543 C          62.0775   85.8295   30.6869 C.3      18      C_S    0.0000
    544 C          61.7360   84.4897   29.9557 C.3      18      C_S    0.0000
    545 C          61.7142   84.5503   28.4116 C.2      18      C_S    0.0000
    546 C          63.4187   86.4020   30.1760 C.3      18      C_S    0.0000
    547 S          60.1216   83.8148   30.5221 S        18      C_S    0.0000
    548 S          60.7777   87.1013   30.3753 S        18      C_S    0.0000
    549 H          62.8747   84.7192   32.3944 H        18      C_S    0.0000
    550 H          61.1928   85.2717   32.6260 H        18      C_S    0.0000
    551 H          62.5294   83.7529   30.2363 H        18      C_S    0.0000
    552 H          62.6814   84.9615   28.0398 H        18      C_S    0.0000
    553 H          60.9140   85.2394   28.0534 H        18      C_S    0.0000
    554 H          63.3944   86.6690   29.0974 H        18      C_S    0.0000
    555 H          63.7047   87.3456   30.6899 H        18      C_S    0.0000
    556 H          64.2464   85.6725   30.3279 H        18      C_S    0.0000
    557 H          60.2641   82.5723   30.0204 H        18      C_S    0.0000
    558 H          60.9183   87.1853   29.0370 H        18      C_S    0.0000
    559 C          16.4926   56.9841   35.5944 C.2      19      C_T    0.0000
    560 C          17.9539   57.3170   35.1789 C.3      19      C_T    0.0000
    561 C          18.9303   56.2574   35.7875 C.3      19      C_T    0.0000
    562 C          20.4113   56.3832   35.3644 C.2      19      C_T    0.0000
    563 C          18.0491   57.3226   33.6367 C.3      19      C_T    0.0000
    564 S          18.8603   56.2655   37.6253 S        19      C_T    0.0000
    565 S          18.3734   59.0150   35.7662 S        19      C_T    0.0000
    566 H          16.2862   55.9128   35.3553 H        19      C_T    0.0000
    567 H          16.3766   57.0844   36.6995 H        19      C_T    0.0000
    568 H          18.5816   55.2534   35.4387 H        19      C_T    0.0000
    569 H          20.4835   56.3860   34.2518 H        19      C_T    0.0000
    570 H          20.8432   57.3493   35.7160 H        19      C_T    0.0000
    571 H          19.0533   57.6198   33.2645 H        19      C_T    0.0000
    572 H          17.3518   58.0507   33.1676 H        19      C_T    0.0000
    573 H          17.8151   56.3168   33.2199 H        19      C_T    0.0000
    574 H          19.4890   55.0914   37.8309 H        19      C_T    0.0000
    575 H          19.6153   59.0888   35.2464 H        19      C_T    0.0000
    576 C          31.0958   44.3384   14.4881 C.2      20      C_U    0.0000
    577 C          31.7181   44.0271   15.8790 C.3      20      C_U    0.0000
    578 C          32.8058   45.0974   16.2223 C.3      20      C_U    0.0000
    579 C          33.6029   44.8557   17.5241 C.2      20      C_U    0.0000
    580 C          32.3377   42.6120   15.8471 C.3      20      C_U    0.0000
    581 S          32.0775   46.7841   16.3052 S        20      C_U    0.0000
    582 S          30.3786   44.0170   17.1478 S        20      C_U    0.0000
    583 H          31.9207   44.4739   13.7475 H        20      C_U    0.0000
    584 H          30.5464   45.3088   14.5232 H        20      C_U    0.0000
    585 H          33.5482   45.0887   15.3857 H        20      C_U    0.0000
    586 H          34.0526   43.8358   17.5034 H        20      C_U    0.0000
    587 H          32.9304   44.8915   18.4129 H        20      C_U    0.0000
    588 H          32.7442   42.2934   16.8313 H        20      C_U    0.0000
    589 H          31.5963   41.8259   15.5848 H        20      C_U    0.0000
    590 H          33.1641   42.5561   15.1027 H        20      C_U    0.0000
    591 H          33.2323   47.4772   16.2616 H        20      C_U    0.0000
    592 H          31.1335   43.6732   18.2108 H        20      C_U    0.0000
    593 C          38.4238   66.7137   36.7214 C.2      21      C_V    0.0000
    594 C          38.8202   67.2954   35.3345 C.3      21      C_V    0.0000
    595 C          40.3476   67.6322   35.3202 C.3      21      C_V    0.0000
    596 C          40.9206   68.1090   33.9665 C.2      21      C_V    0.0000
    597 C          38.4808   66.2596   34.2394 C.3      21      C_V    0.0000
    598 S          40.7629   68.8951   36.5911 S        21      C_V    0.0000
    599 S          37.8089   68.8028   35.0041 S        21      C_V    0.0000
    600 H          39.1254   65.8830   36.9765 H        21      C_V    0.0000
    601 H          38.5571   67.4880   37.5135 H        21      C_V    0.0000
    602 H          40.8920   66.6918   35.5854 H        21      C_V    0.0000
    603 H          40.6787   67.3627   33.1743 H        21      C_V    0.0000
    604 H          40.4515   69.0712   33.6544 H        21      C_V    0.0000
    605 H          38.6760   66.6344   33.2115 H        21      C_V    0.0000
    606 H          37.4047   65.9797   34.2338 H        21      C_V    0.0000
    607 H          39.0703   65.3251   34.3791 H        21      C_V    0.0000
    608 H          42.0993   68.7221   36.5815 H        21      C_V    0.0000
    609 H          38.2740   69.0698   33.7670 H        21      C_V    0.0000
    610 C          90.0784   28.1365   13.6842 C.2      22      C_W    0.0000
    611 C          88.5475   28.3215   13.8861 C.3      22      C_W    0.0000
    612 C          87.9056   26.9656   14.3286 C.3      22      C_W    0.0000
    613 C          86.3652   26.9574   14.4538 C.2      22      C_W    0.0000
    614 C          87.9216   28.8137   12.5619 C.3      22      C_W    0.0000
    615 S          88.6098   26.3851   15.9254 S        22      C_W    0.0000
    616 S          88.2628   29.6313   15.1540 S        22      C_W    0.0000
    617 H          90.2493   27.2568   13.0175 H        22      C_W    0.0000
    618 H          90.5657   27.8892   14.6569 H        22      C_W    0.0000
    619 H          88.1676   26.2096   13.5470 H        22      C_W    0.0000
    620 H          85.9106   27.3106   13.4991 H        22      C_W    0.0000
    621 H          86.0286   27.6625   15.2493 H        22      C_W    0.0000
    622 H          86.8356   29.0327   12.6497 H        22      C_W    0.0000
    623 H          88.3697   29.7667   12.2050 H        22      C_W    0.0000
    624 H          88.0528   28.0578   11.7547 H        22      C_W    0.0000
    625 H          88.1596   25.1164   15.8658 H        22      C_W    0.0000
    626 H          86.9156   29.6489   15.1023 H        22      C_W    0.0000
    627 C          26.2395   49.0263    3.9824 C.2      23      C_X    0.0000
    628 C          26.5422   50.1529    5.0110 C.3      23      C_X    0.0000
    629 C          25.2331   50.5335    5.7778 C.3      23      C_X    0.0000
    630 C          25.3957   51.5590    6.9224 C.2      23      C_X    0.0000
    631 C          27.6251   49.6571    5.9953 C.3      23      C_X    0.0000
    632 S          23.9462   51.1650    4.6256 S        23      C_X    0.0000
    633 S          27.2318   51.6125    4.1176 S        23      C_X    0.0000
    634 H          25.7024   48.1978    4.5045 H        23      C_X    0.0000
    635 H          25.5425   49.4026    3.1966 H        23      C_X    0.0000
    636 H          24.8417   49.5942    6.2423 H        23      C_X    0.0000
    637 H          26.1755   51.2033    7.6353 H        23      C_X    0.0000
    638 H          25.7464   52.5411    6.5276 H        23      C_X    0.0000
    639 H          27.9417   50.4366    6.7215 H        23      C_X    0.0000
    640 H          28.5648   49.3569    5.4821 H        23      C_X    0.0000
    641 H          27.2634   48.7778    6.5751 H        23      C_X    0.0000
    642 H          22.8967   51.0727    5.4658 H        23      C_X    0.0000
    643 H          27.4632   52.3941    5.1916 H        23      C_X    0.0000
    644 C          33.1291   53.1251   39.1526 C.2      24      C_Y    0.0000
    645 C          33.7630   54.4755   39.5927 C.3      24      C_Y    0.0000
    646 C          33.4244   55.5846   38.5432 C.3      24      C_Y    0.0000
    647 C          33.8847   57.0157   38.9017 C.2      24      C_Y    0.0000
    648 C          33.2141   54.8581   40.9855 C.3      24      C_Y    0.0000
    649 S          34.1063   55.1650   36.8874 S        24      C_Y    0.0000
    650 S          35.5876   54.2573   39.7570 S        24      C_Y    0.0000
    651 H          32.0481   53.2922   38.9269 H        24      C_Y    0.0000
    652 H          33.5953   52.7756   38.2011 H        24      C_Y    0.0000
    653 H          32.3101   55.6196   38.4527 H        24      C_Y    0.0000
    654 H          33.4888   57.2954   39.9057 H        24      C_Y    0.0000
    655 H          34.9964   57.0691   38.9692 H        24      C_Y    0.0000
    656 H          33.6754   55.7825   41.3953 H        24      C_Y    0.0000
    657 H          33.4182   54.0809   41.7542 H        24      C_Y    0.0000
    658 H          32.1120   55.0140   40.9498 H        24      C_Y    0.0000
    659 H          33.3957   56.0593   36.1723 H        24      C_Y    0.0000
    660 H          35.8836   55.4981   40.1935 H        24      C_Y    0.0000
    661 S          15.7445   75.8595   18.3613 S        25      C_Z    0.0000
    662 C          14.6272   75.7343   16.9024 C.3      25      C_Z    0.0000
    663 C          15.3149   75.0816   15.6758 C.3      25      C_Z    0.0000
    664 C          14.1239   77.1568   16.5767 C.3      25      C_Z    0.0000
    665 C          13.4443   74.9128   17.3220 C.2      25      C_Z    0.0000
    666 C          16.4457   75.9114   15.0427 C.3      25      C_Z    0.0000
    667 S          16.0004   73.4261   16.0650 S        25      C_Z    0.0000
    668 H          16.8962   75.3902   14.1666 H        25      C_Z    0.0000
    669 H          14.5299   74.9422   14.8898 H        25      C_Z    0.0000
    670 H          13.4938   77.1615   15.6581 H        25      C_Z    0.0000
    671 H          13.5038   77.5737   17.4036 H        25      C_Z    0.0000
    672 H          14.9578   77.8752   16.4112 H        25      C_Z    0.0000
    673 H          12.4662   75.0772   16.8437 H        25      C_Z    0.0000
    674 H          13.5766   73.9714   17.8777 H        25      C_Z    0.0000
    675 H          16.0744   76.8862   14.6553 H        25      C_Z    0.0000
    676 H          17.2653   76.1252   15.7647 H        25      C_Z    0.0000
    677 H          16.0210   72.9808   14.7958 H        25      C_Z    0.0000
    678 H          16.6662   76.6660   17.8010 H        25      C_Z    0.0000
    679 S          75.7969   86.1817   40.3094 S        26     C_AA    0.0000
    680 C          74.5857   85.4386   39.1376 C.3      26     C_AA    0.0000
    681 C          74.2102   86.3959   37.9774 C.3      26     C_AA    0.0000
    682 C          73.3418   85.0242   39.9526 C.3      26     C_AA    0.0000
    683 C          75.2120   84.1910   38.5882 C.2      26     C_AA    0.0000
    684 C          73.4098   87.6429   38.3926 C.3      26     C_AA    0.0000
    685 S          75.6833   86.9726   37.0503 S        26     C_AA    0.0000
    686 H          73.1695   88.2871   37.5155 H        26     C_AA    0.0000
    687 H          73.5708   85.8176   37.2631 H        26     C_AA    0.0000
    688 H          72.5390   84.6276   39.2900 H        26     C_AA    0.0000
    689 H          73.5816   84.2268   40.6932 H        26     C_AA    0.0000
    690 H          72.9087   85.8729   40.5279 H        26     C_AA    0.0000
    691 H          74.5734   83.3525   38.2695 H        26     C_AA    0.0000
    692 H          76.2532   84.1901   38.2300 H        26     C_AA    0.0000
    693 H          72.4299   87.3719   38.8450 H        26     C_AA    0.0000
    694 H          73.9601   88.2697   39.1296 H        26     C_AA    0.0000
    695 H          75.0234   87.2913   35.9224 H        26     C_AA    0.0000
    696 H          75.0281   87.2083   40.7203 H        26     C_AA    0.0000
    697 S          77.7108   38.0699   12.4312 S        27     C_AB    0.0000
    698 C          77.2764   38.5331   14.1601 C.3      27     C_AB    0.0000
    699 C          78.4124   38.2198   15.1675 C.3      27     C_AB    0.0000
    700 C          75.9742   37.7906   14.5289 C.3      27     C_AB    0.0000
    701 C          76.9832   40.0043   14.1621 C.2      27     C_AB    0.0000
    702 C          78.6992   36.7234   15.3838 C.3      27     C_AB    0.0000
    703 S          79.9943   39.0199   14.6990 S        27     C_AB    0.0000
    704 H          79.5219   36.5654   16.1188 H        27     C_AB    0.0000
    705 H          78.1044   38.6420   16.1576 H        27     C_AB    0.0000
    706 H          75.6914   37.9748   15.5906 H        27     C_AB    0.0000
    707 H          75.1179   38.1225   13.8976 H        27     C_AB    0.0000
    708 H          76.0604   36.6891   14.3945 H        27     C_AB    0.0000
    709 H          76.2766   40.4207   14.8967 H        27     C_AB    0.0000
    710 H          77.6517   40.7160   13.6531 H        27     C_AB    0.0000
    711 H          77.8159   36.1906   15.8009 H        27     C_AB    0.0000
    712 H          78.9884   36.2099   14.4397 H        27     C_AB    0.0000
    713 H          80.5340   38.9958   15.9309 H        27     C_AB    0.0000
    714 H          77.8593   36.7479   12.6415 H        27     C_AB    0.0000
    715 S          88.4299   74.2623    8.2814 S        28     C_AC    0.0000
    716 C          89.6871   75.0367    7.1804 C.3      28     C_AC    0.0000
    717 C          91.1130   75.0104    7.7883 C.3      28     C_AC    0.0000
    718 C          89.2249   76.4801    6.8873 C.3      28     C_AC    0.0000
    719 C          89.6690   74.2765    5.8873 C.2      28     C_AC    0.0000
    720 C          91.3081   75.8922    9.0344 C.3      28     C_AC    0.0000
    721 S          91.6478   73.3126    8.2280 S        28     C_AC    0.0000
    722 H          92.3518   75.8317    9.4206 H        28     C_AC    0.0000
    723 H          91.8158   75.3898    7.0038 H        28     C_AC    0.0000
    724 H          89.9788   77.0295    6.2785 H        28     C_AC    0.0000
    725 H          88.2663   76.4983    6.3193 H        28     C_AC    0.0000
    726 H          89.0553   77.0690    7.8165 H        28     C_AC    0.0000
    727 H          89.9426   74.7848    4.9496 H        28     C_AC    0.0000
    728 H          89.6696   73.1755    5.8772 H        28     C_AC    0.0000
    729 H          91.1316   76.9676    8.8100 H        28     C_AC    0.0000
    730 H          90.6251   75.6040    9.8646 H        28     C_AC    0.0000
    731 H          92.9677   73.5710    8.2055 H        28     C_AC    0.0000
    732 H          88.5618   75.1144    9.3160 H        28     C_AC    0.0000
    733 S          31.1433   13.0282   20.0093 S        29     C_AD    0.0000
    734 C          29.4343   12.5163   20.4674 C.3      29     C_AD    0.0000
    735 C          28.3454   13.3258   19.7174 C.3      29     C_AD    0.0000
    736 C          29.3086   11.0039   20.1845 C.3      29     C_AD    0.0000
    737 C          29.2944   12.7205   21.9470 C.2      29     C_AD    0.0000
    738 C          28.2737   13.0750   18.2008 C.3      29     C_AD    0.0000
    739 S          28.5302   15.1329   19.9670 S        29     C_AD    0.0000
    740 H          27.4717   13.6828   17.7219 H        29     C_AD    0.0000
    741 H          27.3553   13.0283   20.1470 H        29     C_AD    0.0000
    742 H          28.2728   10.6421   20.3771 H        29     C_AD    0.0000
    743 H          29.9920   10.4059   20.8304 H        29     C_AD    0.0000
    744 H          29.5600   10.7463   19.1312 H        29     C_AD    0.0000
    745 H          28.6032   12.0868   22.5241 H        29     C_AD    0.0000
    746 H          29.6356   13.6518   22.4252 H        29     C_AD    0.0000
    747 H          28.0272   12.0149   17.9695 H        29     C_AD    0.0000
    748 H          29.2314   13.3184   17.6886 H        29     C_AD    0.0000
    749 H          27.2552   15.4461   19.6740 H        29     C_AD    0.0000
    750 H          31.0732   12.7058   18.7036 H        29     C_AD    0.0000
    751 C          82.2654   68.8680   36.4163 C.2      30     C_AE    0.0000
    752 C          83.0978   67.5985   36.2939 C.3      30     C_AE    0.0000
    753 C          82.7508   66.6511   37.4348 C.3      30     C_AE    0.0000
    754 C          83.5832   65.3816   37.3124 C.3      30     C_AE    0.0000
    755 H          82.9156   64.4975   37.2052 H        30     C_AE    0.0000
    756 C          82.7968   66.9213   34.9634 C.3      30     C_AE    0.0000
    757 H          82.9720   67.1461   38.4068 H        30     C_AE    0.0000
    758 H          84.1787   67.8588   36.3455 H        30     C_AE    0.0000
    759 H          81.1843   68.6084   36.3664 H        30     C_AE    0.0000
    760 H          82.4846   69.3628   37.3889 H        30     C_AE    0.0000
    761 H          81.6698   66.3910   37.3838 H        30     C_AE    0.0000
    762 H          84.2459   65.4454   36.4205 H        30     C_AE    0.0000
    763 H          84.2112   65.2489   38.2217 H        30     C_AE    0.0000
    764 H          83.4046   65.9933   34.8729 H        30     C_AE    0.0000
    765 H          83.0510   67.6133   34.1295 H        30     C_AE    0.0000
    766 H          81.7154   66.6624   34.9152 H        30     C_AE    0.0000
    767 C          48.4531   21.3095   41.4523 C.2      31     C_AF    0.0000
    768 C          47.6010   21.4477   40.1976 C.3      31     C_AF    0.0000
    769 C          46.9861   20.0986   39.8495 C.3      31     C_AF    0.0000
    770 C          46.1340   20.2369   38.5947 C.3      31     C_AF    0.0000
    771 H          46.5205   19.5649   37.7960 H        31     C_AF    0.0000
    772 C          48.4731   21.9207   39.0420 C.3      31     C_AF    0.0000
    773 H          46.3480   19.7540   40.6938 H        31     C_AF    0.0000
    774 H          46.7897   22.1872   40.3815 H        31     C_AF    0.0000
    775 H          49.2637   20.5690   41.2699 H        31     C_AF    0.0000
    776 H          47.8162   20.9633   42.2968 H        31     C_AF    0.0000
    777 H          47.7971   19.3588   39.6661 H        31     C_AF    0.0000
    778 H          46.1623   21.2878   38.2292 H        31     C_AF    0.0000
    779 H          45.0795   19.9592   38.8181 H        31     C_AF    0.0000
    780 H          47.8514   22.0221   38.1246 H        31     C_AF    0.0000
    781 H          48.9220   22.9070   39.2962 H        31     C_AF    0.0000
    782 H          49.2831   21.1791   38.8610 H        31     C_AF    0.0000
    783 C          75.4238   22.9611   35.6008 C.2      32     C_AG    0.0000
    784 C          76.8210   23.3101   36.0964 C.3      32     C_AG    0.0000
    785 C          76.7246   24.3763   37.1796 C.3      32     C_AG    0.0000
    786 C          78.1218   24.7253   37.6752 C.3      32     C_AG    0.0000
    787 H          78.3276   25.8057   37.5043 H        32     C_AG    0.0000
    788 C          77.6529   23.8402   34.9359 C.3      32     C_AG    0.0000
    789 H          76.1176   23.9880   38.0278 H        32     C_AG    0.0000
    790 H          77.3024   22.3988   36.5166 H        32     C_AG    0.0000
    791 H          74.9411   23.8722   35.1818 H        32     C_AG    0.0000
    792 H          74.8155   22.5743   36.4487 H        32     C_AG    0.0000
    793 H          76.2427   25.2875   36.7598 H        32     C_AG    0.0000
    794 H          78.8811   24.1212   37.1299 H        32     C_AG    0.0000
    795 H          78.2036   24.5124   38.7646 H        32     C_AG    0.0000
    796 H          78.6742   24.0956   35.2970 H        32     C_AG    0.0000
    797 H          77.7239   23.0608   34.1446 H        32     C_AG    0.0000
    798 H          77.1687   24.7512   34.5182 H        32     C_AG    0.0000
    799 C          24.4154   33.4486   18.7230 C.2      33     C_AH    0.0000
    800 C          24.4691   31.9622   19.0507 C.3      33     C_AH    0.0000
    801 C          25.7507   31.6559   19.8142 C.3      33     C_AH    0.0000
    802 C          25.8044   30.1695   20.1419 C.3      33     C_AH    0.0000
    803 H          26.7079   29.7106   19.6815 H        33     C_AH    0.0000
    804 C          24.4443   31.1570   17.7581 C.3      33     C_AH    0.0000
    805 H          25.7677   32.2438   20.7592 H        33     C_AH    0.0000
    806 H          23.5910   31.6902   19.6782 H        33     C_AH    0.0000
    807 H          25.2940   33.7219   18.0968 H        33     C_AH    0.0000
    808 H          24.4342   34.0374   19.6673 H        33     C_AH    0.0000
    809 H          26.6290   31.9284   19.1872 H        33     C_AH    0.0000
    810 H          24.8975   29.6596   19.7465 H        33     C_AH    0.0000
    811 H          25.8502   30.0240   21.2444 H        33     C_AH    0.0000
    812 H          24.4835   30.0705   17.9964 H        33     C_AH    0.0000
    813 H          23.5074   31.3803   17.2004 H        33     C_AH    0.0000
    814 H          25.3235   31.4315   17.1333 H        33     C_AH    0.0000
    815 C          58.8376   59.8271   20.9383 C.2      34     C_AI    0.0000
    816 C          59.2097   61.2643   20.5984 C.3      34     C_AI    0.0000
    817 C          58.2956   61.7785   19.4942 C.3      34     C_AI    0.0000
    818 C          58.6677   63.2157   19.1542 C.3      34     C_AI    0.0000
    819 H          58.9655   63.2890   18.0843 H        34     C_AI    0.0000
    820 C          60.6560   61.3148   20.1238 C.3      34     C_AI    0.0000
    821 H          57.2389   61.7424   19.8420 H        34     C_AI    0.0000
    822 H          59.0902   61.9009   21.5035 H        34     C_AI    0.0000
    823 H          58.9553   59.1900   20.0333 H        34     C_AI    0.0000
    824 H          57.7805   59.7897   21.2846 H        34     C_AI    0.0000
    825 H          58.4145   61.1417   18.5891 H        34     C_AI    0.0000
    826 H          59.5177   63.5496   19.7906 H        34     C_AI    0.0000
    827 H          57.7973   63.8864   19.3312 H        34     C_AI    0.0000
    828 H          60.9290   62.3647   19.8751 H        34     C_AI    0.0000
    829 H          61.3242   60.9396   20.9310 H        34     C_AI    0.0000
    830 H          60.7718   60.6772   19.2188 H        34     C_AI    0.0000
    831 C          45.4296   58.3270   11.2123 C.2      35     C_AJ    0.0000
    832 C          44.1972   59.1029   11.6580 C.3      35     C_AJ    0.0000
    833 C          44.2489   60.5126   11.0841 C.3      35     C_AJ    0.0000
    834 C          43.0165   61.2886   11.5299 C.3      35     C_AJ    0.0000
    835 H          43.3220   62.1863   12.1126 H        35     C_AJ    0.0000
    836 C          44.1666   59.1756   13.1790 C.3      35     C_AJ    0.0000
    837 H          44.2701   60.4589    9.9726 H        35     C_AJ    0.0000
    838 H          43.2824   58.5871   11.2894 H        35     C_AJ    0.0000
    839 H          46.3450   58.8430   11.5792 H        35     C_AJ    0.0000
    840 H          45.4526   58.2742   10.1008 H        35     C_AJ    0.0000
    841 H          45.1639   61.0285   11.4522 H        35     C_AJ    0.0000
    842 H          42.3714   60.6443   12.1684 H        35     C_AJ    0.0000
    843 H          42.4326   61.6189   10.6417 H        35     C_AJ    0.0000
    844 H          43.2663   59.7425   13.5059 H        35     C_AJ    0.0000
    845 H          44.1282   58.1454   13.5985 H        35     C_AJ    0.0000
    846 H          45.0826   59.6918   13.5441 H        35     C_AJ    0.0000
    847 C          42.2700   89.3479   28.3757 C.2      36     C_AK    0.0000
    848 C          40.7686   89.3425   28.6309 C.3      36     C_AK    0.0000
    849 C          40.5012   88.9727   30.0839 C.3      36     C_AK    0.0000
    850 C          38.9997   88.9674   30.3392 C.3      36     C_AK    0.0000
    851 H          38.7457   89.7060   31.1321 H        36     C_AK    0.0000
    852 C          40.2012   90.7272   28.3476 C.3      36     C_AK    0.0000
    853 H          40.9150   87.9603   30.2901 H        36     C_AK    0.0000
    854 H          40.2830   88.5953   27.9641 H        36     C_AK    0.0000
    855 H          42.7566   90.0937   29.0434 H        36     C_AK    0.0000
    856 H          42.6851   88.3362   28.5833 H        36     C_AK    0.0000
    857 H          40.9871   89.7194   30.7511 H        36     C_AK    0.0000
    858 H          38.4541   89.2348   29.4066 H        36     C_AK    0.0000
    859 H          38.6737   87.9567   30.6725 H        36     C_AK    0.0000
    860 H          39.1039   90.7244   28.5338 H        36     C_AK    0.0000
    861 H          40.3960   90.9972   27.2856 H        36     C_AK    0.0000
    862 H          40.6889   91.4717   29.0160 H        36     C_AK    0.0000
    863 C          43.0624   68.6177   22.4320 C.2      37     C_AL    0.0000
    864 C          43.2647   70.1260   22.3716 C.3      37     C_AL    0.0000
    865 C          42.4320   70.7057   21.2358 C.3      37     C_AL    0.0000
    866 C          42.6343   72.2139   21.1754 C.3      37     C_AL    0.0000
    867 H          41.6614   72.7347   21.3207 H        37     C_AL    0.0000
    868 C          42.8268   70.7495   23.6904 C.3      37     C_AL    0.0000
    869 H          42.7532   70.2505   20.2722 H        37     C_AL    0.0000
    870 H          44.3404   70.3477   22.1916 H        37     C_AL    0.0000
    871 H          41.9865   68.3952   22.6104 H        37     C_AL    0.0000
    872 H          43.3817   68.1619   21.4682 H        37     C_AL    0.0000
    873 H          41.3562   70.4837   21.4152 H        37     C_AL    0.0000
    874 H          43.3402   72.5356   21.9737 H        37     C_AL    0.0000
    875 H          43.0516   72.5028   20.1848 H        37     C_AL    0.0000
    876 H          42.9742   71.8518   23.6474 H        37     C_AL    0.0000
    877 H          43.4358   70.3264   24.5205 H        37     C_AL    0.0000
    878 H          41.7509   70.5259   23.8672 H        37     C_AL    0.0000
    879 C          69.3677   71.3108   25.9120 C.2      38     C_AM    0.0000
    880 C          69.4911   72.2365   24.7089 C.3      38     C_AM    0.0000
    881 C          70.9551   72.5956   24.4918 C.3      38     C_AM    0.0000
    882 C          71.0785   73.5213   23.2887 C.3      38     C_AM    0.0000
    883 H          71.7251   73.0533   22.5129 H        38     C_AM    0.0000
    884 C          68.9527   71.5326   23.4703 C.3      38     C_AM    0.0000
    885 H          71.3477   73.1110   25.3968 H        38     C_AM    0.0000
    886 H          68.9066   73.1651   24.8956 H        38     C_AM    0.0000
    887 H          69.9533   70.3826   25.7268 H        38     C_AM    0.0000
    888 H          69.7617   71.8247   26.8172 H        38     C_AM    0.0000
    889 H          71.5400   71.6671   24.3056 H        38     C_AM    0.0000
    890 H          70.0728   73.7156   22.8532 H        38     C_AM    0.0000
    891 H          71.5326   74.4893   23.5980 H        38     C_AM    0.0000
    892 H          69.0424   72.2082   22.5904 H        38     C_AM    0.0000
    893 H          67.8826   71.2707   23.6287 H        38     C_AM    0.0000
    894 H          69.5394   70.6047   23.2866 H        38     C_AM    0.0000
    895 C          19.1962   32.7554   34.6209 C.2      39     C_AN    0.0000
    896 C          20.6102   32.6372   35.1742 C.3      39     C_AN    0.0000
    897 C          21.5896   32.4303   34.0265 C.3      39     C_AN    0.0000
    898 C          23.0036   32.3121   34.5798 C.3      39     C_AN    0.0000
    899 H          23.6461   33.1172   34.1580 H        39     C_AN    0.0000
    900 C          20.9697   33.9135   35.9236 C.3      39     C_AN    0.0000
    901 H          21.3271   31.4969   33.4800 H        39     C_AN    0.0000
    902 H          20.6643   31.7681   35.8675 H        39     C_AN    0.0000
    903 H          19.1416   33.6233   33.9263 H        39     C_AN    0.0000
    904 H          18.9334   31.8231   34.0727 H        39     C_AN    0.0000
    905 H          21.5353   33.2990   33.3328 H        39     C_AN    0.0000
    906 H          22.9874   32.4053   35.6889 H        39     C_AN    0.0000
    907 H          23.4386   31.3250   34.3055 H        39     C_AN    0.0000
    908 H          22.0029   33.8282   36.3284 H        39     C_AN    0.0000
    909 H          20.2543   34.0644   36.7628 H        39     C_AN    0.0000
    910 H          20.9145   34.7803   35.2275 H        39     C_AN    0.0000
    911 C          57.4938   89.0078    6.3148 C.2      40     C_AO    0.0000
    912 C          58.3209   89.2691    7.5666 C.3      40     C_AO    0.0000
    913 C          58.6498   90.7533    7.6580 C.3      40     C_AO    0.0000
    914 C          59.4769   91.0147    8.9099 C.3      40     C_AO    0.0000
    915 H          58.9440   91.7297    9.5759 H        40     C_AO    0.0000
    916 C          57.5262   88.8493    8.7962 C.3      40     C_AO    0.0000
    917 H          59.2316   91.0593    6.7598 H        40     C_AO    0.0000
    918 H          59.2661   88.6837    7.5140 H        40     C_AO    0.0000
    919 H          56.5492   89.5940    6.3659 H        40     C_AO    0.0000
    920 H          58.0741   89.3150    5.4161 H        40     C_AO    0.0000
    921 H          57.7048   91.3390    7.7101 H        40     C_AO    0.0000
    922 H          59.6446   90.0623    9.4610 H        40     C_AO    0.0000
    923 H          60.4624   91.4503    8.6310 H        40     C_AO    0.0000
    924 H          58.1297   89.0399    9.7116 H        40     C_AO    0.0000
    925 H          57.2864   87.7645    8.7297 H        40     C_AO    0.0000
    926 H          56.5819   89.4365    8.8456 H        40     C_AO    0.0000
    927 C          74.4488   53.4805   26.6090 C.2      41     C_AP    0.0000
    928 C          75.2795   52.5554   25.7294 C.3      41     C_AP    0.0000
    929 C          75.3565   51.1767   26.3718 C.3      41     C_AP    0.0000
    930 C          76.1872   50.2516   25.4922 C.3      41     C_AP    0.0000
    931 H          77.0693   49.8781   26.0589 H        41     C_AP    0.0000
    932 C          76.6844   53.1243   25.5802 C.3      41     C_AP    0.0000
    933 H          74.3296   50.7610   26.4795 H        41     C_AP    0.0000
    934 H          74.8017   52.4703   24.7278 H        41     C_AP    0.0000
    935 H          74.9250   53.5649   27.6114 H        41     C_AP    0.0000
    936 H          73.4222   53.0647   26.7187 H        41     C_AP    0.0000
    937 H          75.8337   51.2615   27.3737 H        41     C_AP    0.0000
    938 H          76.5414   50.8001   24.5908 H        41     C_AP    0.0000
    939 H          75.5736   49.3812   25.1688 H        41     C_AP    0.0000
    940 H          77.2924   52.4490   24.9376 H        41     C_AP    0.0000
    941 H          76.6283   54.1316   25.1102 H        41     C_AP    0.0000
    942 H          77.1591   53.2080   26.5835 H        41     C_AP    0.0000
    943 C          11.5184   62.6933   13.9817 C.2      42     C_AQ    0.0000
    944 C          12.9114   62.3468   13.4728 C.3      42     C_AQ    0.0000
    945 C          12.8220   61.1747   12.5046 C.3      42     C_AQ    0.0000
    946 C          14.2150   60.8282   11.9957 C.3      42     C_AQ    0.0000
    947 H          14.4686   59.7784   12.2651 H        42     C_AQ    0.0000
    948 C          13.8007   61.9660   14.6491 C.3      42     C_AQ    0.0000
    949 H          12.1729   61.4539   11.6446 H        42     C_AQ    0.0000
    950 H          13.3427   63.2281   12.9473 H        42     C_AQ    0.0000
    951 H          11.0857   61.8120   14.5059 H        42     C_AQ    0.0000
    952 H          10.8680   62.9710   13.1222 H        42     C_AQ    0.0000
    953 H          12.3902   60.2933   13.0296 H        42     C_AQ    0.0000
    954 H          14.9672   61.5109   12.4507 H        42     C_AQ    0.0000
    955 H          14.2530   60.9336   10.8883 H        42     C_AQ    0.0000
    956 H          14.8190   61.7126   14.2784 H        42     C_AQ    0.0000
    957 H          13.8666   62.8228   15.3564 H        42     C_AQ    0.0000
    958 H          13.3665   61.0846   15.1721 H        42     C_AQ    0.0000
    959 C          41.7048   20.0380   30.2953 C.2      43     C_AR    0.0000
    960 C          41.3624   18.8028   29.4728 C.3      43     C_AR    0.0000
    961 C          40.9590   19.2245   28.0661 C.3      43     C_AR    0.0000
    962 C          40.6167   17.9893   27.2435 C.3      43     C_AR    0.0000
    963 H          39.5629   18.0474   26.8899 H        43     C_AR    0.0000
    964 C          40.2066   18.0601   30.1303 C.3      43     C_AR    0.0000
    965 H          41.8044   19.7661   27.5856 H        43     C_AR    0.0000
    966 H          42.2525   18.1368   29.4180 H        43     C_AR    0.0000
    967 H          40.8156   20.7053   30.3493 H        43     C_AR    0.0000
    968 H          42.5489   20.5812   29.8147 H        43     C_AR    0.0000
    969 H          40.0693   19.8909   28.1205 H        43     C_AR    0.0000
    970 H          40.7410   17.0729   27.8630 H        43     C_AR    0.0000
    971 H          41.2888   17.9225   26.3589 H        43     C_AR    0.0000
    972 H          39.9556   17.1572   29.5300 H        43     C_AR    0.0000
    973 H          40.5016   17.7514   31.1582 H        43     C_AR    0.0000
    974 H          39.3185   18.7289   30.1835 H        43     C_AR    0.0000
    975 C          57.5359   48.9325   32.6764 C.2      44     C_AS    0.0000
    976 C          58.0369   49.4962   31.3533 C.3      44     C_AS    0.0000
    977 C          57.7722   50.9952   31.3064 C.3      44     C_AS    0.0000
    978 C          58.2732   51.5589   29.9832 C.3      44     C_AS    0.0000
    979 H          57.4308   52.0243   29.4243 H        44     C_AS    0.0000
    980 C          57.3059   48.8161   30.2032 C.3      44     C_AS    0.0000
    981 H          58.3076   51.4918   32.1464 H        44     C_AS    0.0000
    982 H          59.1308   49.3111   31.2632 H        44     C_AS    0.0000
    983 H          56.4424   49.1186   32.7680 H        44     C_AS    0.0000
    984 H          58.0695   49.4297   33.5171 H        44     C_AS    0.0000
    985 H          56.6785   51.1806   31.3970 H        44     C_AS    0.0000
    986 H          58.7126   50.7446   29.3646 H        44     C_AS    0.0000
    987 H          59.0514   52.3326   30.1692 H        44     C_AS    0.0000
    988 H          57.6713   49.2273   29.2357 H        44     C_AS    0.0000
    989 H          57.4998   47.7206   30.2370 H        44     C_AS    0.0000
    990 H          56.2126   49.0032   30.2964 H        44     C_AS    0.0000
    991 C          17.1111   19.6262   37.2505 C.2      45      M_A    0.0000
    992 C          16.6950   21.0995   37.1785 C.3      45      M_A    0.0000
    993 H          17.7109   19.4483   38.1517 H        45      M_A    0.0000
    994 H          17.7474   19.3727   36.3935 H        45      M_A    0.0000
    995 H          17.5826   21.7368   37.0803 H        45      M_A    0.0000
    996 H          16.0817   21.2740   36.2858 H        45      M_A    0.0000
    997 C          15.8863   21.5510   38.4433 C.3      46      M_A    0.0000
    998 C          14.6822   20.6433   38.7173 C.3      46      M_A    0.0000
    999 H          16.5589   21.5555   39.3100 H        46      M_A    0.0000
   1000 H          15.5521   22.5858   38.2985 H        46      M_A    0.0000
   1001 H          14.0096   20.6387   37.8506 H        46      M_A    0.0000
   1002 H          15.0164   19.6084   38.8621 H        46      M_A    0.0000
   1003 C          13.8735   21.0947   39.9821 C.3      47      M_A    0.0000
   1004 C          13.5207   19.9167   40.8969 C.3      47      M_A    0.0000
   1005 H          14.4650   21.8356   40.5341 H        47      M_A    0.0000
   1006 H          12.9585   21.6033   39.6539 H        47      M_A    0.0000
   1007 H          13.2839   20.0671   41.6147 H        47      M_A    0.0000
   1008 H          13.0072   19.4296   40.5920 H        47      M_A    0.0000
   1009 C          14.5004   19.4161   40.9439 C.3      48      M_A    0.0000
   1010 C          14.9082   19.4102   41.9403 C.3      48      M_A    0.0000
   1011 H          14.4231   18.6940   40.6858 H        48      M_A    0.0000
   1012 H          14.9849   19.7726   40.4622 H        48      M_A    0.0000
   1013 H          14.6466   20.0173   42.3365 H        48      M_A    0.0000
   1014 H          14.6731   18.7812   42.3184 H        48      M_A    0.0000
   1015 C          16.0092   19.4339   41.9408 C.3      49      M_A    0.0000
   1016 C          16.3963   20.4122   42.1694 C.3      49      M_A    0.0000
   1017 H          16.2685   18.9206   42.4539 H        49      M_A    0.0000
   1018 H          16.2629   19.2040   41.2503 H        49      M_A    0.0000
   1019 H          15.9731   20.7410   42.7232 H        49      M_A    0.0000
   1020 H          17.1141   20.3549   42.4439 H        49      M_A    0.0000
   1021 C          16.4047   21.0738   41.2891 C.3      50      M_A    0.0000
   1022 C          17.3779   21.1327   40.8322 C.3      50      M_A    0.0000
   1023 H          15.8884   20.8149   40.7788 H        50      M_A    0.0000
   1024 H          16.1707   21.7760   41.5038 H        50      M_A    0.0000
   1025 H          17.7490   21.7606   41.0809 H        50      M_A    0.0000
   1026 H          17.8049   20.5260   41.0409 H        50      M_A    0.0000
   1027 C          17.3215   21.1657   39.7329 C.3      51      M_A    0.0000
   1028 C          18.2704   21.4025   39.2826 C.3      51      M_A    0.0000
   1029 H          17.0701   20.4838   39.4765 H        51      M_A    0.0000
   1030 H          16.7935   21.6879   39.5268 H        51      M_A    0.0000
   1031 H          18.5458   22.0594   39.5766 H        51      M_A    0.0000
   1032 H          18.7854   20.8533   39.4472 H        51      M_A    0.0000
   1033 C          18.1990   21.5057   38.1886 C.3      52      M_A    0.0000
   1034 C          18.8916   20.8633   37.6720 C.3      52      M_A    0.0000
   1035 H          17.4773   21.3458   37.9705 H        52      M_A    0.0000
   1036 H          18.3294   22.2413   37.9994 H        52      M_A    0.0000
   1037 H          19.6056   21.1484   37.7241 H        52      M_A    0.0000
   1038 H          18.9060   20.1683   38.0049 H        52      M_A    0.0000
   1039 C          18.6344   20.7420   36.6081 C.3      53      M_A    0.0000
   1040 C          19.4028   21.1220   35.9567 C.3      53      M_A    0.0000
   1041 H          18.5130   19.9944   36.4656 H        53      M_A    0.0000
   1042 H          17.9684   21.1045   36.4707 H        53      M_A    0.0000
   1043 H          19.7889   21.6899   36.3066 H        53      M_A    0.0000
   1044 H          19.9160   20.5681   35.8022 H        53      M_A    0.0000
   1045 C          18.9946   21.5026   35.0074 C.3      54      M_A    0.0000
   1046 C          19.2267   20.8588   34.1762 C.3      54      M_A    0.0000
   1047 H          18.2309   21.5782   35.0780 H        54      M_A    0.0000
   1048 H          19.2762   22.2088   34.8814 H        54      M_A    0.0000
   1049 H          19.1196   21.2354   33.5124 H        54      M_A    0.0000
   1050 H          19.9699   20.6562   34.1983 H        54      M_A    0.0000
   1051 C          18.6101   19.9464   34.1701 C.3      55      M_A    0.0000
   1052 C          18.9201   19.2495   33.4102 C.3      55      M_A    0.0000
   1053 H          18.6500   19.6150   34.8647 H        55      M_A    0.0000
   1054 H          17.8734   20.1452   34.0617 H        55      M_A    0.0000
   1055 H          18.4722   18.6227   33.4280 H        55      M_A    0.0000
   1056 H          18.8332   19.5639   32.7120 H        55      M_A    0.0000
   1057 C          19.9697   18.9393   33.5316 C.3      56      M_A    0.0000
   1058 C          20.5771   19.2153   32.6865 C.3      56      M_A    0.0000
   1059 H          20.2504   19.2588   34.1743 H        56      M_A    0.0000
   1060 H          19.9928   18.1760   33.6356 H        56      M_A    0.0000
   1061 H          21.0519   18.6369   32.5023 H        56      M_A    0.0000
   1062 H          20.1314   19.3405   32.0704 H        56      M_A    0.0000
   1063 C          21.1765   20.1185   32.8806 C.3      57      M_A    0.0000
   1064 C          22.2344   19.9227   32.8398 C.3      57      M_A    0.0000
   1065 H          20.9875   20.6579   32.3636 H        57      M_A    0.0000
   1066 H          20.9862   20.3990   33.5727 H        57      M_A    0.0000
   1067 H          22.3696   19.2861   32.4269 H        57      M_A    0.0000
   1068 H          22.5965   20.5005   32.4806 H        57      M_A    0.0000
   1069 C          22.6744   19.7963   33.8414 C.3      58      M_A    0.0000
   1070 C          23.7221   19.5520   33.7989 C.3      58      M_A    0.0000
   1071 H          22.5706   20.4463   34.2421 H        58      M_A    0.0000
   1072 H          22.2889   19.2427   34.2139 H        58      M_A    0.0000
   1073 H          23.8992   19.2672   33.1051 H        58      M_A    0.0000
   1074 H          24.1459   20.1890   33.8914 H        58      M_A    0.0000
   1075 C          24.0112   18.8186   34.5679 C.3      59      M_A    0.0000
   1076 C          24.4827   17.9481   34.1448 C.3      59      M_A    0.0000
   1077 H          24.4868   19.1592   35.0696 H        59      M_A    0.0000
   1078 H          23.3827   18.6127   34.9635 H        59      M_A    0.0000
   1079 H          23.9529   17.4921   33.8202 H        59      M_A    0.0000
   1080 H          24.9684   18.1569   33.5841 H        59      M_A    0.0000
   1081 C          25.0381   17.3669   34.8974 C.3      60      M_A    0.0000
   1082 C          24.6304   16.3797   35.0330 C.2      60      M_A    0.0000
   1083 H          25.7761   17.3205   34.6804 H        60      M_A    0.0000
   1084 H          25.0276   17.7512   35.5654 H        60      M_A    0.0000
   1085 H          23.8924   16.4261   35.2500 H        60      M_A    0.0000
   1086 H          24.6409   15.9954   34.3651 H        60      M_A    0.0000
   1087 C          17.4965   34.1910   36.4238 C.2      61      M_A    0.0000
   1088 C          17.9410   33.3635   35.7789 C.3      61      M_A    0.0000
   1089 H          16.9869   33.8725   36.9752 H        61      M_A    0.0000
   1090 H          17.0550   34.6984   35.9625 H        61      M_A    0.0000
   1091 H          17.9098   33.5751   34.9918 H        61      M_A    0.0000
   1092 H          18.7288   33.2588   35.9622 H        61      M_A    0.0000
   1093 C          17.3850   32.3487   35.9174 C.3      62      M_A    0.0000
   1094 C          16.6370   32.1486   35.0815 C.3      62      M_A    0.0000
   1095 H          17.9367   31.7488   35.9485 H        62      M_A    0.0000
   1096 H          17.0039   32.3541   36.6384 H        62      M_A    0.0000
   1097 H          15.9139   32.4758   35.2690 H        62      M_A    0.0000
   1098 H          16.8850   32.5076   34.3924 H        62      M_A    0.0000
   1099 C          16.4932   31.0096   34.8809 C.3      63      M_A    0.0000
   1100 C          15.8616   30.8108   33.9536 C.3      63      M_A    0.0000
   1101 H          17.2266   30.6623   34.7994 H        63      M_A    0.0000
   1102 H          16.1444   30.6695   35.5350 H        63      M_A    0.0000
   1103 H          15.1300   31.1624   34.0329 H        63      M_A    0.0000
   1104 H          16.2130   31.1467   33.2987 H        63      M_A    0.0000
   1105 C          15.7119   29.6719   33.7570 C.3      64      M_A    0.0000
   1106 C          16.1904   29.3359   32.7791 C.3      64      M_A    0.0000
   1107 H          16.0283   29.2535   34.3815 H        64      M_A    0.0000
   1108 H          14.9126   29.5097   33.7475 H        64      M_A    0.0000
   1109 H          15.6438   29.3682   32.1746 H        64      M_A    0.0000
   1110 H          16.7955   29.8433   32.5750 H        64      M_A    0.0000
   1111 C          16.6147   28.2524   32.8443 C.3      65      M_A    0.0000
   1112 C          15.8251   27.4648   32.6111 C.3      65      M_A    0.0000
   1113 H          17.2403   28.1834   32.3257 H        65      M_A    0.0000
   1114 H          16.9164   28.1329   33.5926 H        65      M_A    0.0000
   1115 H          15.0790   27.7795   32.7079 H        65      M_A    0.0000
   1116 H          15.8824   27.2338   31.8310 H        65      M_A    0.0000
   1117 C          15.9266   26.5230   33.2900 C.3      66      M_A    0.0000
   1118 C          14.9142   26.0846   33.5745 C.3      66      M_A    0.0000
   1119 H          16.3736   25.9640   32.8990 H        66      M_A    0.0000
   1120 H          16.3418   26.7268   33.9618 H        66      M_A    0.0000
   1121 H          14.3252   26.6336   33.4446 H        66      M_A    0.0000
   1122 H          14.7444   25.4426   33.1009 H        66      M_A    0.0000
   1123 C          14.8757   25.7492   34.6899 C.3      67      M_A    0.0000
   1124 C          14.8439   24.6154   34.7991 C.3      67      M_A    0.0000
   1125 H          15.5277   26.0492   35.0773 H        67      M_A    0.0000
   1126 H          14.2201   26.0825   35.0422 H        67      M_A    0.0000
   1127 H          15.3597   24.2691   34.2708 H        67      M_A    0.0000
   1128 H          15.0926   24.3992   35.5451 H        67      M_A    0.0000
   1129 C          13.7763   24.1842   34.6193 C.3      68      M_A    0.0000
   1130 C          13.3166   23.7586   35.5711 C.2      68      M_A    0.0000
   1131 H          13.3011   24.7753   34.3194 H        68      M_A    0.0000
   1132 H          13.8196   23.6052   34.0466 H        68      M_A    0.0000
   1133 H          13.7918   23.1675   35.8711 H        68      M_A    0.0000
   1134 H          13.2733   24.3376   36.1439 H        68      M_A    0.0000
   1135 C          41.5895   20.6963   32.3614 C.2      69      M_A    0.0000
   1136 C          42.1331   20.4998   33.7809 C.3      69      M_A    0.0000
   1137 H          41.2629   19.7344   31.9471 H        69      M_A    0.0000
   1138 H          42.3835   21.0696   31.7028 H        69      M_A    0.0000
   1139 H          42.7609   21.3535   34.0648 H        69      M_A    0.0000
   1140 H          41.3049   20.4651   34.4994 H        69      M_A    0.0000
   1141 C          42.9760   19.1852   33.9175 C.3      70      M_A    0.0000
   1142 C          43.7159   18.8323   32.6225 C.3      70      M_A    0.0000
   1143 H          43.6930   19.3085   34.7387 H        70      M_A    0.0000
   1144 H          42.3070   18.3643   34.2041 H        70      M_A    0.0000
   1145 H          43.1182   18.1313   32.0268 H        70      M_A    0.0000
   1146 H          43.8504   19.7318   32.0090 H        70      M_A    0.0000
   1147 C          45.1207   18.1928   32.8962 C.3      71      M_A    0.0000
   1148 C          46.1914   18.7059   31.9270 C.3      71      M_A    0.0000
   1149 H          45.4135   18.4119   33.9305 H        71      M_A    0.0000
   1150 H          45.0340   17.1019   32.8177 H        71      M_A    0.0000
   1151 H          46.1049   18.1893   30.9631 H        71      M_A    0.0000
   1152 H          46.0373   19.7735   31.7272 H        71      M_A    0.0000
   1153 C          47.6430   18.5001   32.4821 C.3      72      M_A    0.0000
   1154 C          48.5734   19.6631   32.1205 C.3      72      M_A    0.0000
   1155 H          47.5917   18.3842   33.5718 H        72      M_A    0.0000
   1156 H          48.0439   17.5598   32.0838 H        72      M_A    0.0000
   1157 H          49.5825   19.4713   32.5057 H        72      M_A    0.0000
   1158 H          48.6632   19.7481   31.0304 H        72      M_A    0.0000
   1159 C          48.0652   21.0309   32.6937 C.3      73      M_A    0.0000
   1160 C          49.2148   22.0021   32.9839 C.3      73      M_A    0.0000
   1161 H          47.3673   21.4780   31.9751 H        73      M_A    0.0000
   1162 H          47.4939   20.8396   33.6106 H        73      M_A    0.0000
   1163 H          49.6794   21.5343   33.7452 H        73      M_A    0.0000
   1164 H          49.8520   21.9884   32.2041 H        73      M_A    0.0000
   1165 C          48.9708   23.3698   33.3595 C.3      74      M_A    0.0000
   1166 C          49.1650   23.5875   34.7359 C.3      74      M_A    0.0000
   1167 H          49.5815   23.9669   32.8259 H        74      M_A    0.0000
   1168 H          48.0287   23.6143   33.1008 H        74      M_A    0.0000
   1169 H          48.5048   23.0440   35.2681 H        74      M_A    0.0000
   1170 H          50.0829   23.2755   35.0088 H        74      M_A    0.0000
   1171 C          49.0206   24.9737   35.0946 C.3      75      M_A    0.0000
   1172 C          47.8202   25.2237   35.7846 C.3      75      M_A    0.0000
   1173 H          49.8076   25.2462   35.6608 H        75      M_A    0.0000
   1174 H          49.0600   25.5315   34.2570 H        75      M_A    0.0000
   1175 H          47.3100   24.3648   35.9125 H        75      M_A    0.0000
   1176 H          48.0189   25.5818   36.7047 H        75      M_A    0.0000
   1177 C          46.9790   26.1643   35.0926 C.3      76      M_A    0.0000
   1178 C          45.6837   25.6604   34.8734 C.3      76      M_A    0.0000
   1179 H          46.9324   27.0147   35.6301 H        76      M_A    0.0000
   1180 H          47.4108   26.4007   34.2140 H        76      M_A    0.0000
   1181 H          45.4836   24.9243   35.5310 H        76      M_A    0.0000
   1182 H          45.0006   26.3833   35.0319 H        76      M_A    0.0000
   1183 C          45.5162   25.1484   33.5389 C.3      77      M_A    0.0000
   1184 C          44.4075   25.7167   32.8850 C.3      77      M_A    0.0000
   1185 H          46.3566   25.3290   33.0141 H        77      M_A    0.0000
   1186 H          45.4139   24.1476   33.5857 H        77      M_A    0.0000
   1187 H          44.2649   26.6611   33.2044 H        77      M_A    0.0000
   1188 H          44.5807   25.7695   31.8943 H        77      M_A    0.0000
   1189 C          43.2001   24.9652   33.1054 C.3      78      M_A    0.0000
   1190 C          42.1090   25.7921   33.4297 C.3      78      M_A    0.0000
   1191 H          42.9943   24.4311   32.2767 H        78      M_A    0.0000
   1192 H          43.3617   24.3008   33.8449 H        78      M_A    0.0000
   1193 H          42.3385   26.3726   34.2201 H        78      M_A    0.0000
   1194 H          41.9070   26.4137   32.6634 H        78      M_A    0.0000
   1195 C          40.9241   25.0358   33.7381 C.3      79      M_A    0.0000
   1196 C          39.8229   25.4268   32.9545 C.3      79      M_A    0.0000
   1197 H          41.1178   24.0575   33.5979 H        79      M_A    0.0000
   1198 H          40.7107   25.1511   34.7156 H        79      M_A    0.0000
   1199 H          39.7497   26.4311   32.9383 H        79      M_A    0.0000
   1200 H          39.9553   25.1311   32.0009 H        79      M_A    0.0000
   1201 C          38.5846   24.8792   33.4422 C.3      80      M_A    0.0000
   1202 C          38.1467   23.7843   32.6746 C.3      80      M_A    0.0000
   1203 H          38.7086   24.6005   34.4020 H        80      M_A    0.0000
   1204 H          37.8857   25.6043   33.4396 H        80      M_A    0.0000
   1205 H          37.4690   24.0884   31.9944 H        80      M_A    0.0000
   1206 H          38.9184   23.3933   32.1590 H        80      M_A    0.0000
   1207 C          37.5589   22.7504   33.4849 C.3      81      M_A    0.0000
   1208 C          36.1621   22.8841   33.5892 C.3      81      M_A    0.0000
   1209 H          37.7913   21.8548   33.0873 H        81      M_A    0.0000
   1210 H          37.9778   22.7779   34.4004 H        81      M_A    0.0000
   1211 H          35.8122   23.4522   32.8348 H        81      M_A    0.0000
   1212 H          35.7214   21.9828   33.5010 H        81      M_A    0.0000
   1213 C          35.7627   23.4754   34.8390 C.3      82      M_A    0.0000
   1214 C          34.3638   23.5304   34.9799 C.3      82      M_A    0.0000
   1215 H          36.1651   22.9431   35.5933 H        82      M_A    0.0000
   1216 H          36.1525   24.4021   34.8989 H        82      M_A    0.0000
   1217 H          33.9774   24.1974   34.3317 H        82      M_A    0.0000
   1218 H          33.9584   22.6372   34.7518 H        82      M_A    0.0000
   1219 C          33.9639   23.8944   36.3136 C.3      83      M_A    0.0000
   1220 C          32.5745   24.0899   36.4190 C.3      83      M_A    0.0000
   1221 H          34.2602   23.1721   36.9498 H        83      M_A    0.0000
   1222 H          34.4520   24.7337   36.5812 H        83      M_A    0.0000
   1223 H          32.2960   24.0746   37.3867 H        83      M_A    0.0000
   1224 H          32.3253   24.9975   36.0607 H        83      M_A    0.0000
   1225 C          31.8271   23.0883   35.7053 C.3      84      M_A    0.0000
   1226 C          31.4601   22.0087   36.5296 C.3      84      M_A    0.0000
   1227 H          31.0053   23.5163   35.3106 H        84      M_A    0.0000
   1228 H          32.3817   22.7592   34.9317 H        84      M_A    0.0000
   1229 H          32.1008   21.9311   37.3028 H        84      M_A    0.0000
   1230 H          30.5480   22.1704   36.9249 H        84      M_A    0.0000
   1231 C          31.4412   20.7592   35.8157 C.3      85      M_A    0.0000
   1232 C          31.8813   19.6845   36.6100 C.3      85      M_A    0.0000
   1233 H          30.5045   20.5862   35.4889 H        85      M_A    0.0000
   1234 H          32.0220   20.8442   34.9972 H        85      M_A    0.0000
   1235 H          32.0218   18.8674   36.0383 H        85      M_A    0.0000
   1236 H          32.7725   19.9039   37.0248 H        85      M_A    0.0000
   1237 C          30.9486   19.3629   37.6577 C.3      86      M_A    0.0000
   1238 C          30.6222   17.9944   37.6795 C.3      86      M_A    0.0000
   1239 H          31.3459   19.6372   38.5416 H        86      M_A    0.0000
   1240 H          30.1155   19.9146   37.5314 H        86      M_A    0.0000
   1241 H          30.8286   17.5759   36.7870 H        86      M_A    0.0000
   1242 H          31.1878   17.5153   38.3613 H        86      M_A    0.0000
   1243 C          29.2345   17.7695   37.9875 C.3      87      M_A    0.0000
   1244 C          29.0289   17.4943   39.3519 C.2      87      M_A    0.0000
   1245 H          28.7058   18.5825   37.7157 H        87      M_A    0.0000
   1246 H          28.8973   17.0043   37.4262 H        87      M_A    0.0000
   1247 H          29.5576   16.6813   39.6237 H        87      M_A    0.0000
   1248 H          29.3661   18.2595   39.9132 H        87      M_A    0.0000
   1249 C          29.8855   13.1892   23.4457 C.2      88      M_A    0.0000
   1250 C          28.6695   12.9242   23.4249 C.3      88      M_A    0.0000
   1251 H          30.3013   12.6696   24.0380 H        88      M_A    0.0000
   1252 H          30.0103   14.0305   23.7113 H        88      M_A    0.0000
   1253 H          28.2943   13.2682   22.6936 H        88      M_A    0.0000
   1254 H          28.5497   12.0423   23.3832 H        88      M_A    0.0000
   1255 C          28.0602   13.3732   24.4487 C.3      89      M_A    0.0000
   1256 C          28.5348   12.9318   25.5113 C.3      89      M_A    0.0000
   1257 H          28.1034   14.2631   24.4412 H        89      M_A    0.0000
   1258 H          27.1978   13.1584   24.3868 H        89      M_A    0.0000
   1259 H          28.5879   12.0431   25.4763 H        89      M_A    0.0000
   1260 H          29.3657   13.2334   25.6234 H        89      M_A    0.0000
   1261 C          27.8383   13.2617   26.5247 C.3      90      M_A    0.0000
   1262 C          28.1855   12.6539   27.5539 C.3      90      M_A    0.0000
   1263 H          27.9115   14.1408   26.6496 H        90      M_A    0.0000
   1264 H          26.9802   13.0989   26.3486 H        90      M_A    0.0000
   1265 H          27.7870   11.8577   27.5877 H        90      M_A    0.0000
   1266 H          29.0630   12.5003   27.5367 H        90      M_A    0.0000
   1267 C          27.9027   13.2996   28.6141 C.3      91      M_A    0.0000
   1268 C          27.0640   12.7072   29.3177 C.3      91      M_A    0.0000
   1269 H          28.6517   13.4321   29.0781 H        91      M_A    0.0000
   1270 H          27.5967   14.1049   28.3869 H        91      M_A    0.0000
   1271 H          27.3836   11.9156   29.5726 H        91      M_A    0.0000
   1272 H          26.9070   13.1714   30.0618 H        91      M_A    0.0000
   1273 C          25.9620   12.5273   28.7061 C.3      92      M_A    0.0000
   1274 C          25.0807   12.0589   29.4500 C.3      92      M_A    0.0000
   1275 H          25.6924   13.3050   28.3652 H        92      M_A    0.0000
   1276 H          26.1021   11.9805   28.0167 H        92      M_A    0.0000
   1277 H          25.1562   11.1722   29.4923 H        92      M_A    0.0000
   1278 H          25.1873   12.3647   30.2800 H        92      M_A    0.0000
   1279 C          23.9075   12.3524   29.0520 C.3      93      M_A    0.0000
   1280 C          23.0254   11.8314   29.7592 C.3      93      M_A    0.0000
   1281 H          23.8168   13.2387   29.0541 H        93      M_A    0.0000
   1282 H          23.8166   12.0879   28.2061 H        93      M_A    0.0000
   1283 H          22.4545   12.4537   30.0431 H        93      M_A    0.0000
   1284 H          22.5518   11.2501   29.2779 H        93      M_A    0.0000
   1285 C          23.5110   11.2282   30.7697 C.3      94      M_A    0.0000
   1286 C          22.6501   10.9936   31.6376 C.3      94      M_A    0.0000
   1287 H          23.8854   10.4670   30.4973 H        94      M_A    0.0000
   1288 H          24.1647   11.7258   31.1145 H        94      M_A    0.0000
   1289 H          22.0635   11.6632   31.6749 H        94      M_A    0.0000
   1290 H          22.1898   10.2620   31.4215 H        94      M_A    0.0000
   1291 C          23.1609   10.8308   32.7923 C.3      95      M_A    0.0000
   1292 C          22.3808   11.1615   33.7042 C.3      95      M_A    0.0000
   1293 H          23.3945    9.9760   32.8851 H        95      M_A    0.0000
   1294 H          23.9114   11.3082   32.8443 H        95      M_A    0.0000
   1295 H          21.7529   11.7076   33.3859 H        95      M_A    0.0000
   1296 H          21.9589   10.4434   34.0207 H        95      M_A    0.0000
   1297 C          22.9807   11.7419   34.6655 C.3      96      M_A    0.0000
   1298 C          22.3221   11.7086   35.7213 C.3      96      M_A    0.0000
   1299 H          23.7726   11.3521   34.7871 H        96      M_A    0.0000
   1300 H          23.1441   12.5866   34.4339 H        96      M_A    0.0000
   1301 H          21.4993   12.0191   35.5780 H        96      M_A    0.0000
   1302 H          22.2331   10.8669   35.9994 H        96      M_A    0.0000
   1303 C          22.8629   12.3925   36.6490 C.3      97      M_A    0.0000
   1304 C          22.0573   13.1701   37.1928 C.3      97      M_A    0.0000
   1305 H          23.2055   11.8353   37.2541 H        97      M_A    0.0000
   1306 H          23.5463   12.8506   36.3071 H        97      M_A    0.0000
   1307 H          21.3607   13.3128   36.6560 H        97      M_A    0.0000
   1308 H          21.7350   12.8039   37.9383 H        97      M_A    0.0000
   1309 C          22.5886   14.2903   37.4824 C.3      98      M_A    0.0000
   1310 C          22.9408   14.3512   38.6747 C.3      98      M_A    0.0000
   1311 H          23.2904   14.4216   36.9494 H        98      M_A    0.0000
   1312 H          22.0056   14.9396   37.3025 H        98      M_A    0.0000
   1313 H          22.7621   15.1591   39.0051 H        98      M_A    0.0000
   1314 H          22.4756   13.7672   39.1609 H        98      M_A    0.0000
   1315 C          24.1824   14.1122   38.8238 C.3      99      M_A    0.0000
   1316 C          24.3928   13.2128   39.6581 C.3      99      M_A    0.0000
   1317 H          24.5277   13.8839   38.0348 H        99      M_A    0.0000
   1318 H          24.5913   14.8631   39.0744 H        99      M_A    0.0000
   1319 H          24.4325   13.5596   40.4778 H        99      M_A    0.0000
   1320 H          23.7170   12.6322   39.6584 H        99      M_A    0.0000
   1321 C          25.4747   12.5830   39.4262 C.3     100      M_A    0.0000
   1322 C          25.2806   11.3702   39.2243 C.2     100      M_A    0.0000
   1323 H          25.8749   12.9501   38.7198 H       100      M_A    0.0000
   1324 H          26.0251   12.6933   40.1180 H       100      M_A    0.0000
   1325 H          24.8804   11.0031   39.9307 H       100      M_A    0.0000
   1326 H          24.7302   11.2599   38.5324 H       100      M_A    0.0000
   1327 C          34.2130   39.1312   36.7940 C.2     101      M_A    0.0000
   1328 C          34.1868   38.1634   35.5635 C.3     101      M_A    0.0000
   1329 H          34.5870   38.5896   37.7010 H       101      M_A    0.0000
   1330 H          33.1743   39.4784   37.0319 H       101      M_A    0.0000
   1331 H          33.7826   38.6961   34.6641 H       101      M_A    0.0000
   1332 H          35.2288   37.8415   35.3055 H       101      M_A    0.0000
   1333 C          33.2964   36.8603   35.8351 C.3     102      M_A    0.0000
   1334 C          33.7155   36.1185   37.1486 C.3     102      M_A    0.0000
   1335 H          32.2192   37.1644   35.8924 H       102      M_A    0.0000
   1336 H          33.3896   36.1698   34.9573 H       102      M_A    0.0000
   1337 H          34.7542   35.7108   37.0450 H       102      M_A    0.0000
   1338 H          33.7367   36.8390   38.0068 H       102      M_A    0.0000
   1339 C          32.7223   34.9152   37.5094 C.3     103      M_A    0.0000
   1340 C          32.0177   35.1217   38.8923 C.3     103      M_A    0.0000
   1341 H          31.9554   34.8240   36.6973 H       103      M_A    0.0000
   1342 H          33.3026   33.9565   37.5131 H       103      M_A    0.0000
   1343 H          32.6789   34.7540   39.7191 H       103      M_A    0.0000
   1344 H          31.8477   36.2138   39.0777 H       103      M_A    0.0000
   1345 C          30.6123   34.3587   38.9773 C.3     104      M_A    0.0000
   1346 C          30.7239   32.9918   39.7326 C.3     104      M_A    0.0000
   1347 H          29.8712   35.0231   39.4925 H       104      M_A    0.0000
   1348 H          30.2277   34.1931   37.9378 H       104      M_A    0.0000
   1349 H          31.5579   32.3808   39.3001 H       104      M_A    0.0000
   1350 H          30.9788   33.1676   40.8097 H       104      M_A    0.0000
   1351 C          29.3681   32.1430   39.6550 C.3     105      M_A    0.0000
   1352 C          29.6133   30.6769   39.1633 C.3     105      M_A    0.0000
   1353 H          28.8893   32.1335   40.6682 H       105      M_A    0.0000
   1354 H          28.6542   32.6649   38.9665 H       105      M_A    0.0000
   1355 H          29.9896   30.6834   38.1077 H       105      M_A    0.0000
   1356 H          30.4087   30.1909   39.7855 H       105      M_A    0.0000
   1357 C          28.2860   29.7835   39.2327 C.3     106      M_A    0.0000
   1358 C          28.5253   28.3243   38.7181 C.3     106      M_A    0.0000
   1359 H          27.9198   29.7624   40.2916 H       106      M_A    0.0000
   1360 H          27.4851   30.2788   38.6250 H       106      M_A    0.0000
   1361 H          28.6915   28.3301   37.6098 H       106      M_A    0.0000
   1362 H          29.4543   27.9013   39.1806 H       106      M_A    0.0000
   1363 C          27.2953   27.3542   39.0506 C.3     107      M_A    0.0000
   1364 C          27.7189   25.8471   39.0781 C.3     107      M_A    0.0000
   1365 H          26.8599   27.6491   40.0402 H       107      M_A    0.0000
   1366 H          26.4923   27.5137   38.2853 H       107      M_A    0.0000
   1367 H          27.8138   25.4554   38.0324 H       107      M_A    0.0000
   1368 H          28.7276   25.7401   39.5546 H       107      M_A    0.0000
   1369 C          26.6714   24.9367   39.8772 C.3     108      M_A    0.0000
   1370 C          27.1462   23.4494   39.9943 C.3     108      M_A    0.0000
   1371 H          26.5189   25.3730   40.8982 H       108      M_A    0.0000
   1372 H          25.6805   24.9839   39.3558 H       108      M_A    0.0000
   1373 H          27.0356   22.9318   39.0064 H       108      M_A    0.0000
   1374 H          28.2352   23.4131   40.2564 H       108      M_A    0.0000
   1375 C          26.3219   22.6344   41.0992 C.3     109      M_A    0.0000
   1376 C          26.4635   21.0852   40.9222 C.3     109      M_A    0.0000
   1377 H          26.6814   22.9394   42.1160 H       109      M_A    0.0000
   1378 H          25.2430   22.9312   41.0369 H       109      M_A    0.0000
   1379 H          26.2928   20.8036   39.8510 H       109      M_A    0.0000
   1380 H          27.5062   20.7630   41.1773 H       109      M_A    0.0000
   1381 C          25.4330   20.2727   41.8401 C.3     110      M_A    0.0000
   1382 C          25.2985   18.7762   41.3997 C.3     110      M_A    0.0000
   1383 H          25.7753   20.3304   42.9057 H       110      M_A    0.0000
   1384 H          24.4336   20.7778   41.7953 H       110      M_A    0.0000
   1385 H          24.4015   18.6490   40.7399 H       110      M_A    0.0000
   1386 H          26.1902   18.4727   40.7925 H       110      M_A    0.0000
   1387 C          25.1641   17.7852   42.6504 C.3     111      M_A    0.0000
   1388 C          24.9715   16.2954   42.2091 C.3     111      M_A    0.0000
   1389 H          26.0807   17.8818   43.2879 H       111      M_A    0.0000
   1390 H          24.2977   18.1144   43.2806 H       111      M_A    0.0000
   1391 H          25.7938   15.6607   42.6297 H       111      M_A    0.0000
   1392 H          24.0108   15.8932   42.6227 H       111      M_A    0.0000
   1393 C          24.9564   16.1315   40.6161 C.3     112      M_A    0.0000
   1394 C          24.8932   14.6306   40.1747 C.3     112      M_A    0.0000
   1395 H          24.0771   16.6907   40.2038 H       112      M_A    0.0000
   1396 H          25.8737   16.6178   40.1942 H       112      M_A    0.0000
   1397 H          25.4811   14.4822   39.2322 H       112      M_A    0.0000
   1398 H          25.3666   13.9803   40.9550 H       112      M_A    0.0000
   1399 C          23.3910   14.1328   39.9297 C.3     113      M_A    0.0000
   1400 C          23.3190   12.6043   39.5983 C.3     113      M_A    0.0000
   1401 H          22.7826   14.3568   40.8439 H       113      M_A    0.0000
   1402 H          22.9448   14.7291   39.0922 H       113      M_A    0.0000
   1403 H          24.1553   12.3209   38.9082 H       113      M_A    0.0000
   1404 H          23.4550   12.0015   40.5332 H       113      M_A    0.0000
   1405 C          21.9278   12.1955   38.9184 C.3     114      M_A    0.0000
   1406 C          21.1000   11.2083   39.8081 C.3     114      M_A    0.0000
   1407 H          21.3345   13.1259   38.7224 H       114      M_A    0.0000
   1408 H          22.1364   11.7306   37.9203 H       114      M_A    0.0000
   1409 H          21.2708   10.1529   39.4721 H       114      M_A    0.0000
   1410 H          21.4465   11.2674   40.8723 H       114      M_A    0.0000
   1411 C          19.5296   11.5180   39.7587 C.3     115      M_A    0.0000
   1412 C          18.7048   10.5498   40.6717 C.3     115      M_A    0.0000
   1413 H          19.3608   12.5802   40.0737 H       115      M_A    0.0000
   1414 H          19.1788   11.4375   38.6973 H       115      M_A    0.0000
   1415 H          17.7740   10.2210   40.1411 H       115      M_A    0.0000
   1416 H          19.2984    9.6232   40.8843 H       115      M_A    0.0000
   1417 C          18.2936   11.2297   42.0621 C.3     116      M_A    0.0000
   1418 C          16.7700   11.5855   42.1209 C.3     116      M_A    0.0000
   1419 H          18.5577   10.5312   42.8978 H       116      M_A    0.0000
   1420 H          18.9100   12.1542   42.2084 H       116      M_A    0.0000
   1421 H          16.4942   12.2391   41.2533 H       116      M_A    0.0000
   1422 H          16.1540   10.6536   42.0304 H       116      M_A    0.0000
   1423 C          16.3741   12.3361   43.4790 C.3     117      M_A    0.0000
   1424 C          16.1425   13.8695   43.2637 C.3     117      M_A    0.0000
   1425 H          15.4482   11.8626   43.8967 H       117      M_A    0.0000
   1426 H          17.1873   12.1723   44.2326 H       117      M_A    0.0000
   1427 H          15.6747   14.0505   42.2615 H       117      M_A    0.0000
   1428 H          15.4242   14.2610   44.0296 H       117      M_A    0.0000
   1429 C          17.5038   14.7078   43.3568 C.3     118      M_A    0.0000
   1430 C          17.5019   15.7111   44.5588 C.3     118      M_A    0.0000
   1431 H          18.3620   13.9936   43.4538 H       118      M_A    0.0000
   1432 H          17.6535   15.2618   42.3941 H       118      M_A    0.0000
   1433 H          16.4500   15.9160   44.8866 H       118      M_A    0.0000
   1434 H          18.0304   15.2589   45.4376 H       118      M_A    0.0000
   1435 C          18.2079   17.1006   44.1908 C.3     119      M_A    0.0000
   1436 C          17.1906   18.2899   44.1474 C.3     119      M_A    0.0000
   1437 H          19.0105   17.3088   44.9448 H       119      M_A    0.0000
   1438 H          18.7181   16.9949   43.1986 H       119      M_A    0.0000
   1439 H          16.1964   17.9317   43.7741 H       119      M_A    0.0000
   1440 H          17.0215   18.6889   45.1809 H       119      M_A    0.0000
   1441 C          17.6942   19.4854   43.2085 C.3     120      M_A    0.0000
   1442 C          16.5068   20.2470   42.5291 C.3     120      M_A    0.0000
   1443 H          18.3043   20.1958   43.8242 H       120      M_A    0.0000
   1444 H          18.3796   19.0667   42.4268 H       120      M_A    0.0000
   1445 H          15.7141   19.5201   42.2143 H       120      M_A    0.0000
   1446 H          16.0290   20.9465   43.2629 H       120      M_A    0.0000
   1447 C          16.9770   21.0850   41.2480 C.3     121      M_A    0.0000
   1448 C          16.3433   22.5162   41.2099 C.2     121      M_A    0.0000
   1449 H          18.0952   21.1599   41.2558 H       121      M_A    0.0000
   1450 H          16.6990   20.5169   40.3228 H       121      M_A    0.0000
   1451 H          15.2251   22.4413   41.2021 H       121      M_A    0.0000
   1452 H          16.6213   23.0843   42.1351 H       121      M_A    0.0000
   1453 C          33.7235   46.4378   33.1046 C.2     122      M_A    0.0000
   1454 C          34.8019   47.5148   32.9430 C.3     122      M_A    0.0000
   1455 H          34.0475   45.6879   33.8369 H       122      M_A    0.0000
   1456 H          33.5759   45.9079   32.1554 H       122      M_A    0.0000
   1457 H          34.7086   47.8440   32.3359 H       122      M_A    0.0000
   1458 H          34.7077   47.9895   33.4445 H       122      M_A    0.0000
   1459 C          35.7397   47.1829   32.9873 C.3     123      M_A    0.0000
   1460 C          35.8824   46.4037   32.4212 C.3     123      M_A    0.0000
   1461 H          36.1694   47.6978   32.7979 H       123      M_A    0.0000
   1462 H          35.8922   47.0283   33.6495 H       123      M_A    0.0000
   1463 H          35.7045   45.8236   32.7639 H       123      M_A    0.0000
   1464 H          35.4717   46.4381   31.8593 H       123      M_A    0.0000
   1465 C          36.8289   46.3225   32.1225 C.3     124      M_A    0.0000
   1466 C          36.9609   45.5739   31.5143 C.3     124      M_A    0.0000
   1467 H          37.0188   46.9177   31.8137 H       124      M_A    0.0000
   1468 H          37.2360   46.2494   32.6834 H       124      M_A    0.0000
   1469 H          36.8802   44.9716   31.8555 H       124      M_A    0.0000
   1470 H          36.4776   45.5858   31.0123 H       124      M_A    0.0000
   1471 C          37.8627   45.5852   31.0920 C.3     125      M_A    0.0000
   1472 C          38.2802   44.7057   31.0900 C.3     125      M_A    0.0000
   1473 H          37.8023   45.8225   30.4396 H       125      M_A    0.0000
   1474 H          38.2651   46.0399   31.4339 H       125      M_A    0.0000
   1475 H          38.3097   44.4537   31.7390 H       125      M_A    0.0000
   1476 H          37.8946   44.2590   30.7192 H       125      M_A    0.0000
   1477 C          39.2010   44.7259   30.7113 C.3     126      M_A    0.0000
   1478 C          39.7348   43.9640   30.9984 C.3     126      M_A    0.0000
   1479 H          39.1576   44.7388   30.0159 H       126      M_A    0.0000
   1480 H          39.5099   45.3202   30.9036 H       126      M_A    0.0000
   1481 H          39.3184   43.4374   31.1854 H       126      M_A    0.0000
   1482 H          40.1248   43.7325   30.4692 H       126      M_A    0.0000
   1483 C          40.3319   44.1883   31.7631 C.3     127      M_A    0.0000
   1484 C          40.4066   43.4558   32.4001 C.3     127      M_A    0.0000
   1485 H          40.9617   44.3544   31.5151 H       127      M_A    0.0000
   1486 H          40.0856   44.7573   32.0811 H       127      M_A    0.0000
   1487 H          40.9672   43.5466   32.8040 H       127      M_A    0.0000
   1488 H          39.8534   43.4504   32.8239 H       127      M_A    0.0000
   1489 C          40.4750   42.5700   31.9503 C.3     128      M_A    0.0000
   1490 C          40.8430   41.8857   32.5371 C.3     128      M_A    0.0000
   1491 H          39.8416   42.3804   31.7300 H       128      M_A    0.0000
   1492 H          40.8729   42.6367   31.3821 H       128      M_A    0.0000
   1493 H          41.5263   41.8133   32.4205 H       128      M_A    0.0000
   1494 H          40.7730   42.0790   33.2029 H       128      M_A    0.0000
   1495 C          40.4006   41.0026   32.4109 C.3     129      M_A    0.0000
   1496 C          41.0282   40.3115   32.1345 C.3     129      M_A    0.0000
   1497 H          40.0908   40.8193   33.0076 H       129      M_A    0.0000
   1498 H          39.8953   41.0704   31.9357 H       129      M_A    0.0000
   1499 H          40.7057   39.6946   32.1028 H       129      M_A    0.0000
   1500 H          41.2652   40.4466   31.4933 H       129      M_A    0.0000
   1501 C          41.8040   40.2367   32.7543 C.3     130      M_A    0.0000
   1502 C          41.7353   39.4617   33.3396 C.3     130      M_A    0.0000
   1503 H          42.3895   40.2007   32.3780 H       130      M_A    0.0000
   1504 H          41.8455   40.8197   33.1338 H       130      M_A    0.0000
   1505 H          41.6718   38.8806   32.9602 H       130      M_A    0.0000
   1506 H          42.3185   39.3931   33.7148 H       130      M_A    0.0000
   1507 C          40.9596   39.5256   33.9609 C.3     131      M_A    0.0000
   1508 C          41.2115   39.3500   34.8848 C.2     131      M_A    0.0000
   1509 H          40.6799   40.1615   33.9062 H       131      M_A    0.0000
   1510 H          40.4703   39.0734   33.7565 H       131      M_A    0.0000
   1511 H          41.4913   38.7141   34.9395 H       131      M_A    0.0000
   1512 H          41.7008   39.8022   35.0891 H       131      M_A    0.0000
   1513 C          34.0598   47.0504   18.3967 C.2     132      M_A    0.0000
   1514 C          33.9941   48.1688   19.4426 C.3     132      M_A    0.0000
   1515 H          34.4065   46.1196   18.8626 H       132      M_A    0.0000
   1516 H          34.7909   47.3048   17.6193 H       132      M_A    0.0000
   1517 H          33.7273   49.1181   18.9618 H       132      M_A    0.0000
   1518 H          33.2054   47.9537   20.1743 H       132      M_A    0.0000
   1519 C          35.3526   48.3517   20.2031 C.3     133      M_A    0.0000
   1520 C          36.4632   47.4646   19.6297 C.3     133      M_A    0.0000
   1521 H          35.6486   49.4067   20.1495 H       133      M_A    0.0000
   1522 H          35.1975   48.1215   21.2644 H       133      M_A    0.0000
   1523 H          36.0297   46.5631   19.1791 H       133      M_A    0.0000
   1524 H          36.9918   47.9947   18.8278 H       133      M_A    0.0000
   1525 C          37.5026   47.0339   20.7214 C.3     134      M_A    0.0000
   1526 C          38.6262   46.1664   20.1434 C.3     134      M_A    0.0000
   1527 H          37.9234   47.9352   21.1841 H       134      M_A    0.0000
   1528 H          36.9767   46.4886   21.5148 H       134      M_A    0.0000
   1529 H          38.2062   45.2607   19.6887 H       134      M_A    0.0000
   1530 H          39.1463   46.7083   19.3437 H       134      M_A    0.0000
   1531 C          39.6726   45.7465   21.2325 C.3     135      M_A    0.0000
   1532 C          41.1154   45.9881   20.7755 C.3     135      M_A    0.0000
   1533 H          39.4703   46.3087   22.1526 H       135      M_A    0.0000
   1534 H          39.5267   44.6860   21.4728 H       135      M_A    0.0000
   1535 H          41.4586   45.1510   20.1550 H       135      M_A    0.0000
   1536 H          41.1659   46.8867   20.1482 H       135      M_A    0.0000
   1537 C          42.1004   46.1589   21.9831 C.3     136      M_A    0.0000
   1538 C          42.5664   47.6093   22.1518 C.3     136      M_A    0.0000
   1539 H          41.6015   45.8153   22.8977 H       136      M_A    0.0000
   1540 H          42.9651   45.5014   21.8298 H       136      M_A    0.0000
   1541 H          42.6633   48.0898   21.1704 H       136      M_A    0.0000
   1542 H          41.8164   48.1827   22.7107 H       136      M_A    0.0000
   1543 C          43.9398   47.7086   22.9010 C.3     137      M_A    0.0000
   1544 C          44.0821   49.0199   23.6816 C.3     137      M_A    0.0000
   1545 H          44.0340   46.8535   23.5817 H       137      M_A    0.0000
   1546 H          44.7502   47.6179   22.1671 H       137      M_A    0.0000
   1547 H          43.3682   49.0413   24.5144 H       137      M_A    0.0000
   1548 H          45.0839   49.0877   24.1237 H       137      M_A    0.0000
   1549 C          43.8423   50.2783   22.7781 C.3     138      M_A    0.0000
   1550 C          43.2178   51.4416   23.5563 C.3     138      M_A    0.0000
   1551 H          44.8001   50.5884   22.3423 H       138      M_A    0.0000
   1552 H          43.1927   49.9939   21.9410 H       138      M_A    0.0000
   1553 H          43.3903   51.3104   24.6317 H       138      M_A    0.0000
   1554 H          43.6997   52.3855   23.2728 H       138      M_A    0.0000
   1555 C          41.6757   51.5657   23.3034 C.3     139      M_A    0.0000
   1556 C          41.1938   53.0197   23.3545 C.3     139      M_A    0.0000
   1557 H          41.4411   51.1258   22.3261 H       139      M_A    0.0000
   1558 H          41.1450   50.9669   24.0539 H       139      M_A    0.0000
   1559 H          41.4083   53.4527   24.3395 H       139      M_A    0.0000
   1560 H          41.7404   53.6232   22.6193 H       139      M_A    0.0000
   1561 C          39.6574   53.1468   23.0705 C.3     140      M_A    0.0000
   1562 C          39.2440   54.5862   22.7445 C.3     140      M_A    0.0000
   1563 H          39.3956   52.4824   22.2377 H       140      M_A    0.0000
   1564 H          39.1048   52.7860   23.9469 H       140      M_A    0.0000
   1565 H          39.1461   54.7128   21.6592 H       140      M_A    0.0000
   1566 H          38.2591   54.8018   23.1770 H       140      M_A    0.0000
   1567 C          40.2741   55.6370   23.2849 C.3     141      M_A    0.0000
   1568 C          40.1822   56.9751   22.5432 C.3     141      M_A    0.0000
   1569 H          40.0959   55.7880   24.3568 H       141      M_A    0.0000
   1570 H          41.2853   55.2225   23.1890 H       141      M_A    0.0000
   1571 H          40.2396   56.8096   21.4602 H       141      M_A    0.0000
   1572 H          39.2116   57.4476   22.7387 H       141      M_A    0.0000
   1573 C          41.3209   57.9669   22.9638 C.3     142      M_A    0.0000
   1574 C          42.0374   58.5757   21.7533 C.3     142      M_A    0.0000
   1575 H          40.8867   58.7618   23.5828 H       142      M_A    0.0000
   1576 H          42.0399   57.4320   23.5966 H       142      M_A    0.0000
   1577 H          42.8780   57.9377   21.4537 H       142      M_A    0.0000
   1578 H          41.3548   58.6207   20.8957 H       142      M_A    0.0000
   1579 C          42.5770   60.0182   22.0459 C.3     143      M_A    0.0000
   1580 C          44.0029   60.0021   22.6075 C.3     143      M_A    0.0000
   1581 H          42.5447   60.6027   21.1181 H       143      M_A    0.0000
   1582 H          41.8996   60.5124   22.7534 H       143      M_A    0.0000
   1583 H          44.3420   59.3165   22.3068 H       143      M_A    0.0000
   1584 H          44.4268   60.6323   22.2937 H       143      M_A    0.0000
   1585 C          44.1283   60.0056   23.7751 C.3     144      M_A    0.0000
   1586 C          44.9726   59.3105   24.1242 C.3     144      M_A    0.0000
   1587 H          44.2759   60.7750   24.0233 H       144      M_A    0.0000
   1588 H          43.4168   59.7793   24.1186 H       144      M_A    0.0000
   1589 H          45.1396   58.7553   23.5417 H       144      M_A    0.0000
   1590 H          45.6618   59.7420   24.2434 H       144      M_A    0.0000
   1591 C          44.7026   58.7466   25.1182 C.3     145      M_A    0.0000
   1592 C          44.6731   57.6074   24.9780 C.3     145      M_A    0.0000
   1593 H          45.2543   58.9454   25.6939 H       145      M_A    0.0000
   1594 H          43.9741   59.0164   25.3863 H       145      M_A    0.0000
   1595 H          43.9348   57.3767   24.7003 H       145      M_A    0.0000
   1596 H          45.2209   57.3792   24.4096 H       145      M_A    0.0000
   1597 C          44.8996   57.0303   25.9753 C.3     146      M_A    0.0000
   1598 C          43.9598   56.5423   26.4188 C.3     146      M_A    0.0000
   1599 H          45.4706   56.4583   25.8264 H       146      M_A    0.0000
   1600 H          45.2268   57.5550   26.5166 H       146      M_A    0.0000
   1601 H          43.7718   55.8607   25.9998 H       146      M_A    0.0000
   1602 H          44.1017   56.3109   27.1944 H       146      M_A    0.0000
   1603 C          43.0337   57.2641   26.4025 C.3     147      M_A    0.0000
   1604 C          42.2427   56.9748   27.1828 C.3     147      M_A    0.0000
   1605 H          43.2940   58.0320   26.5365 H       147      M_A    0.0000
   1606 H          42.7037   57.2547   25.6499 H       147      M_A    0.0000
   1607 H          42.6077   56.6879   27.8609 H       147      M_A    0.0000
   1608 H          41.8136   57.6383   27.4084 H       147      M_A    0.0000
   1609 C          41.4978   56.1609   26.7807 C.3     148      M_A    0.0000
   1610 C          40.7140   55.8631   27.5650 C.3     148      M_A    0.0000
   1611 H          41.1265   56.4512   26.1074 H       148      M_A    0.0000
   1612 H          41.9277   55.5007   26.5470 H       148      M_A    0.0000
   1613 H          40.9494   55.1776   27.9524 H       148      M_A    0.0000
   1614 H          40.6522   56.4487   28.1382 H       148      M_A    0.0000
   1615 C          39.6548   55.6848   27.0903 C.3     149      M_A    0.0000
   1616 C          38.8048   55.8839   27.8359 C.3     149      M_A    0.0000
   1617 H          39.5735   56.1720   26.4335 H       149      M_A    0.0000
   1618 H          39.6141   54.9110   26.8166 H       149      M_A    0.0000
   1619 H          38.6365   55.2006   28.2604 H       149      M_A    0.0000
   1620 H          39.0373   56.4508   28.3836 H       149      M_A    0.0000
   1621 C          37.8238   56.2507   27.3048 C.3     150      M_A    0.0000
   1622 C          37.1152   55.3833   27.0523 C.3     150      M_A    0.0000
   1623 H          37.4442   56.7915   27.7936 H       150      M_A    0.0000
   1624 H          38.0290   56.6555   26.6197 H       150      M_A    0.0000
   1625 H          37.5308   54.6745   27.0401 H       150      M_A    0.0000
   1626 H          36.5407   55.3100   27.6353 H       150      M_A    0.0000
   1627 C          36.5851   55.5293   26.0147 C.3     151      M_A    0.0000
   1628 C          35.9079   54.6427   25.7435 C.3     151      M_A    0.0000
   1629 H          36.1453   56.2232   26.0372 H       151      M_A    0.0000
   1630 H          37.1594   55.6326   25.4361 H       151      M_A    0.0000
   1631 H          35.7012   54.6787   24.9490 H       151      M_A    0.0000
   1632 H          36.3131   53.9357   25.8501 H       151      M_A    0.0000
   1633 C          34.9272   54.6180   26.3890 C.3     152      M_A    0.0000
   1634 C          34.2172   53.7743   26.0694 C.3     152      M_A    0.0000
   1635 H          35.1327   54.5290   27.1797 H       152      M_A    0.0000
   1636 H          34.5489   55.3446   26.3238 H       152      M_A    0.0000
   1637 H          34.0338   53.8473   25.2717 H       152      M_A    0.0000
   1638 H          34.5860   53.0457   26.1611 H       152      M_A    0.0000
   1639 C          33.2194   53.7740   26.6886 C.3     153      M_A    0.0000
   1640 C          32.4676   52.9971   26.3020 C.3     153      M_A    0.0000
   1641 H          33.3970   53.6260   27.4772 H       153      M_A    0.0000
   1642 H          32.8885   54.5256   26.6583 H       153      M_A    0.0000
   1643 H          32.1780   52.5496   26.9275 H       153      M_A    0.0000
   1644 H          31.8213   53.3748   25.9628 H       153      M_A    0.0000
   1645 C          32.9432   52.2744   25.5079 C.3     154      M_A    0.0000
   1646 C          32.2657   51.3772   25.2752 C.3     154      M_A    0.0000
   1647 H          33.0948   52.6988   24.8207 H       154      M_A    0.0000
   1648 H          33.6699   52.0132   25.7891 H       154      M_A    0.0000
   1649 H          31.7247   51.2672   25.8840 H       154      M_A    0.0000
   1650 H          31.8287   51.5231   24.5947 H       154      M_A    0.0000
   1651 C          32.8762   50.3850   25.1274 C.3     155      M_A    0.0000
   1652 C          32.1954   49.4655   25.0309 C.3     155      M_A    0.0000
   1653 H          33.3452   50.4600   24.4568 H       155      M_A    0.0000
   1654 H          33.3876   50.2914   25.7638 H       155      M_A    0.0000
   1655 H          31.5682   49.6311   24.5264 H       155      M_A    0.0000
   1656 H          32.6108   48.8415   24.6941 H       155      M_A    0.0000
   1657 C          31.7661   49.1189   26.0675 C.3     156      M_A    0.0000
   1658 C          31.9627   48.0059   26.2696 C.2     156      M_A    0.0000
   1659 H          32.1037   49.5768   26.6605 H       156      M_A    0.0000
   1660 H          30.9585   49.2698   26.0836 H       156      M_A    0.0000
   1661 H          31.6252   47.5479   25.6766 H       156      M_A    0.0000
   1662 H          32.7704   47.8549   26.2535 H       156      M_A    0.0000
   1663 C          32.4888   53.1834   40.8019 C.2     157      M_A    0.0000
   1664 C          32.9275   52.3222   40.3456 C.3     157      M_A    0.0000
   1665 H          31.9889   52.9693   41.3401 H       157      M_A    0.0000
   1666 H          32.0944   53.5833   40.2825 H       157      M_A    0.0000
   1667 H          32.7796   52.3190   39.5950 H       157      M_A    0.0000
   1668 H          33.6886   52.3453   40.4195 H       157      M_A    0.0000
   1669 C          32.5593   51.3896   40.7813 C.3     158      M_A    0.0000
   1670 C          31.7969   50.9370   40.1844 C.3     158      M_A    0.0000
   1671 H          33.1474   50.9076   40.8654 H       158      M_A    0.0000
   1672 H          32.2916   51.5342   41.4833 H       158      M_A    0.0000
   1673 H          31.2342   50.6752   40.6318 H       158      M_A    0.0000
   1674 H          31.4837   51.4578   39.7197 H       158      M_A    0.0000
   1675 C          32.1799   50.1105   39.5800 C.3     159      M_A    0.0000
   1676 C          31.4005   49.4652   39.2358 C.3     159      M_A    0.0000
   1677 H          32.5646   50.3981   38.9845 H       159      M_A    0.0000
   1678 H          32.6843   49.7136   39.9964 H       159      M_A    0.0000
   1679 H          30.7772   49.5514   39.6709 H       159      M_A    0.0000
   1680 H          31.1986   49.6550   38.5227 H       159      M_A    0.0000
   1681 C          31.6972   48.4131   39.2497 C.3     160      M_A    0.0000
   1682 C          30.9019   47.7640   38.9522 C.3     160      M_A    0.0000
   1683 H          32.2988   48.3204   38.7862 H       160      M_A    0.0000
   1684 H          31.9333   48.2328   39.9548 H       160      M_A    0.0000
   1685 H          30.4997   47.5442   39.5647 H       160      M_A    0.0000
   1686 H          30.4168   48.1369   38.4930 H       160      M_A    0.0000
   1687 C          31.2661   46.8741   38.4320 C.3     161      M_A    0.0000
   1688 C          30.5488   46.0817   38.4341 C.3     161      M_A    0.0000
   1689 H          31.4444   47.0646   37.7128 H       161      M_A    0.0000
   1690 H          31.9145   46.6418   38.7649 H       161      M_A    0.0000
   1691 H          30.9011   45.4092   38.5282 H       161      M_A    0.0000
   1692 H          30.0696   46.1632   39.0249 H       161      M_A    0.0000
   1693 C          29.9660   46.0479   37.5097 C.3     162      M_A    0.0000
   1694 C          28.9380   46.2926   37.6699 C.3     162      M_A    0.0000
   1695 H          30.2756   46.5326   37.0052 H       162      M_A    0.0000
   1696 H          30.0249   45.3480   37.2065 H       162      M_A    0.0000
   1697 H          28.7325   46.1083   38.3834 H       162      M_A    0.0000
   1698 H          28.8339   47.0473   37.5992 H       162      M_A    0.0000
   1699 C          28.2756   45.7784   36.9685 C.3     163      M_A    0.0000
   1700 C          27.8730   46.4402   36.2321 C.3     163      M_A    0.0000
   1701 H          28.6657   45.2144   36.6292 H       163      M_A    0.0000
   1702 H          27.7089   45.4476   37.3619 H       163      M_A    0.0000
   1703 H          27.6928   47.1110   36.5527 H       163      M_A    0.0000
   1704 H          28.3987   46.5871   35.6960 H       163      M_A    0.0000
   1705 C          26.9822   46.0299   35.7490 C.3     164      M_A    0.0000
   1706 C          26.8433   46.4148   34.7616 C.3     164      M_A    0.0000
   1707 H          27.0425   45.2675   35.7274 H       164      M_A    0.0000
   1708 H          26.3715   46.1898   36.1813 H       164      M_A    0.0000
   1709 H          27.2094   45.9743   34.2545 H       164      M_A    0.0000
   1710 H          26.1017   46.3954   34.5745 H       164      M_A    0.0000
   1711 C          27.2050   47.4416   34.6625 C.3     165      M_A    0.0000
   1712 C          27.4859   47.6770   33.6585 C.3     165      M_A    0.0000
   1713 H          26.6575   47.9200   34.9007 H       165      M_A    0.0000
   1714 H          27.8014   47.5394   35.1316 H       165      M_A    0.0000
   1715 H          27.6193   47.0341   33.2658 H       165      M_A    0.0000
   1716 H          26.9118   48.0365   33.3028 H       165      M_A    0.0000
   1717 C          28.3776   48.3079   33.6149 C.3     166      M_A    0.0000
   1718 C          28.4101   48.9025   32.7273 C.3     166      M_A    0.0000
   1719 H          28.3914   48.7585   34.2331 H       166      M_A    0.0000
   1720 H          28.9977   47.8616   33.6544 H       166      M_A    0.0000
   1721 H          27.7063   48.9796   32.4373 H       166      M_A    0.0000
   1722 H          28.6579   49.6072   32.8925 H       166      M_A    0.0000
   1723 C          29.0610   48.4704   31.9626 C.3     167      M_A    0.0000
   1724 C          28.5122   48.1159   31.1167 C.3     167      M_A    0.0000
   1725 H          29.5685   48.9991   31.7432 H       167      M_A    0.0000
   1726 H          29.4612   47.8977   32.2744 H       167      M_A    0.0000
   1727 H          28.1271   48.6926   30.7934 H       167      M_A    0.0000
   1728 H          28.9931   47.8478   30.5856 H       167      M_A    0.0000
   1729 C          27.8052   47.3257   31.3830 C.3     168      M_A    0.0000
   1730 C          27.9875   46.4207   30.8443 C.2     168      M_A    0.0000
   1731 H          27.8515   47.1968   32.1357 H       168      M_A    0.0000
   1732 H          27.0947   47.5740   31.2458 H       168      M_A    0.0000
   1733 H          27.9412   46.5496   30.0916 H       168      M_A    0.0000
   1734 H          28.6980   46.1724   30.9814 H       168      M_A    0.0000
   1735 C          36.2756   67.3913   37.5246 C.2     169      M_A    0.0000
   1736 C          36.4145   67.1757   36.3502 C.3     169      M_A    0.0000
   1737 H          36.8019   66.8867   37.9814 H       169      M_A    0.0000
   1738 H          35.4736   67.1961   37.7675 H       169      M_A    0.0000
   1739 H          36.2443   67.8873   35.8974 H       169      M_A    0.0000
   1740 H          37.2322   66.9664   36.1833 H       169      M_A    0.0000
   1741 C          35.6845   66.2694   35.9533 C.3     170      M_A    0.0000
   1742 C          36.1944   65.1876   36.0745 C.3     170      M_A    0.0000
   1743 H          34.9444   66.2975   36.3912 H       170      M_A    0.0000
   1744 H          35.4888   66.4124   35.1277 H       170      M_A    0.0000
   1745 H          36.9573   65.1747   35.6767 H       170      M_A    0.0000
   1746 H          36.3464   65.0245   36.9056 H       170      M_A    0.0000
   1747 C          35.4931   64.2878   35.6159 C.3     171      M_A    0.0000
   1748 C          36.0114   63.2082   35.7201 C.3     171      M_A    0.0000
   1749 H          34.7353   64.2919   36.0235 H       171      M_A    0.0000
   1750 H          35.3296   64.4580   34.7885 H       171      M_A    0.0000
   1751 H          36.5458   63.0726   35.0595 H       171      M_A    0.0000
   1752 H          36.4894   63.1781   36.4349 H       171      M_A    0.0000
   1753 C          35.1867   62.2970   35.7562 C.3     172      M_A    0.0000
   1754 C          35.1786   61.6495   34.7434 C.3     172      M_A    0.0000
   1755 H          35.3626   61.7902   36.4290 H       172      M_A    0.0000
   1756 H          34.4075   62.6335   35.8974 H       172      M_A    0.0000
   1757 H          35.5280   62.1026   34.1007 H       172      M_A    0.0000
   1758 H          35.6623   60.9444   34.8401 H       172      M_A    0.0000
   1759 C          34.0431   61.3093   34.4169 C.3     173      M_A    0.0000
   1760 C          33.7756   60.1980   34.7890 C.3     173      M_A    0.0000
   1761 H          33.4803   61.8729   34.7425 H       173      M_A    0.0000
   1762 H          33.9744   61.3582   33.5606 H       173      M_A    0.0000
   1763 H          33.0444   59.9319   34.4219 H       173      M_A    0.0000
   1764 H          34.3901   59.6485   34.5425 H       173      M_A    0.0000
   1765 C          33.6523   60.1327   36.0106 C.3     174      M_A    0.0000
   1766 C          32.9072   59.2514   36.3469 C.3     174      M_A    0.0000
   1767 H          34.4287   60.0127   36.3617 H       174      M_A    0.0000
   1768 H          33.3641   60.8897   36.3011 H       174      M_A    0.0000
   1769 H          32.3804   59.5310   36.9671 H       174      M_A    0.0000
   1770 H          32.4084   59.0184   35.6856 H       174      M_A    0.0000
   1771 C          33.5109   58.2615   36.7560 C.3     175      M_A    0.0000
   1772 C          33.3835   58.1079   37.9414 C.2     175      M_A    0.0000
   1773 H          33.2230   57.5679   36.3360 H       175      M_A    0.0000
   1774 H          34.3440   58.3428   36.5569 H       175      M_A    0.0000
   1775 H          33.6714   58.8015   38.3614 H       175      M_A    0.0000
   1776 H          32.5504   58.0266   38.1405 H       175      M_A    0.0000
   1777 C          43.0722   69.0566   24.2842 C.2     176      M_A    0.0000
   1778 C          42.6946   68.2263   23.0526 C.3     176      M_A    0.0000
   1779 H          43.8008   68.5110   24.8967 H       176      M_A    0.0000
   1780 H          42.1888   69.2179   24.9144 H       176      M_A    0.0000
   1781 H          41.8491   68.6911   22.5304 H       176      M_A    0.0000
   1782 H          43.5305   68.2052   22.3424 H       176      M_A    0.0000
   1783 C          42.3103   66.7527   23.4245 C.3     177      M_A    0.0000
   1784 C          42.1134   66.5669   24.9331 C.3     177      M_A    0.0000
   1785 H          41.3923   66.4807   22.8890 H       177      M_A    0.0000
   1786 H          43.0975   66.0798   23.0622 H       177      M_A    0.0000
   1787 H          43.0644   66.7197   25.4582 H       177      M_A    0.0000
   1788 H          41.4165   67.3220   25.3173 H       177      M_A    0.0000
   1789 C          41.5626   65.1431   25.2894 C.3     178      M_A    0.0000
   1790 C          40.2269   65.2077   26.0383 C.3     178      M_A    0.0000
   1791 H          41.4470   64.5667   24.3632 H       178      M_A    0.0000
   1792 H          42.3094   64.6169   25.8968 H       178      M_A    0.0000
   1793 H          40.2972   65.9171   26.8723 H       178      M_A    0.0000
   1794 H          39.4398   65.5819   25.3721 H       178      M_A    0.0000
   1795 C          39.7920   63.8100   26.5992 C.3     179      M_A    0.0000
   1796 C          38.3655   63.4353   26.1826 C.3     179      M_A    0.0000
   1797 H          40.4995   63.0506   26.2436 H       179      M_A    0.0000
   1798 H          39.8721   63.8274   27.6932 H       179      M_A    0.0000
   1799 H          37.6561   64.1856   26.5532 H       179      M_A    0.0000
   1800 H          38.2808   63.4348   25.0889 H       179      M_A    0.0000
   1801 C          37.9394   62.0268   26.7230 C.3     180      M_A    0.0000
   1802 C          36.4670   61.9884   27.1469 C.3     180      M_A    0.0000
   1803 H          38.1260   61.2777   25.9435 H       180      M_A    0.0000
   1804 H          38.5823   61.7646   27.5724 H       180      M_A    0.0000
   1805 H          36.0718   63.0087   27.2268 H       180      M_A    0.0000
   1806 H          35.8686   61.4777   26.3823 H       180      M_A    0.0000
   1807 C          36.2627   61.2585   28.5192 C.3     181      M_A    0.0000
   1808 C          35.3668   60.0215   28.3914 C.3     181      M_A    0.0000
   1809 H          37.2442   60.9726   28.9172 H       181      M_A    0.0000
   1810 H          35.8266   61.9665   29.2348 H       181      M_A    0.0000
   1811 H          34.3267   60.3262   28.2215 H       181      M_A    0.0000
   1812 H          35.6676   59.4277   27.5194 H       181      M_A    0.0000
   1813 C          35.4249   59.1116   29.6667 C.3     182      M_A    0.0000
   1814 C          34.2819   58.0913   29.7047 C.3     182      M_A    0.0000
   1815 H          36.3920   58.5941   29.6881 H       182      M_A    0.0000
   1816 H          35.3893   59.7498   30.5583 H       182      M_A    0.0000
   1817 H          33.4617   58.4683   30.3281 H       182      M_A    0.0000
   1818 H          33.8718   57.9481   28.6973 H       182      M_A    0.0000
   1819 C          34.7443   56.7018   30.2641 C.3     183      M_A    0.0000
   1820 C          34.7593   56.6168   31.4554 C.3     183      M_A    0.0000
   1821 H          34.1526   56.1766   29.9402 H       183      M_A    0.0000
   1822 H          35.4963   56.4523   29.9430 H       183      M_A    0.0000
   1823 H          34.3384   57.2755   31.8016 H       183      M_A    0.0000
   1824 H          34.3520   55.9074   31.7038 H       183      M_A    0.0000
   1825 C          35.8954   56.5960   31.9038 C.3     184      M_A    0.0000
   1826 C          36.2169   57.6472   32.3711 C.3     184      M_A    0.0000
   1827 H          35.9460   55.9834   32.4980 H       184      M_A    0.0000
   1828 H          36.4347   56.3762   31.2780 H       184      M_A    0.0000
   1829 H          35.5296   58.1453   32.4727 H       184      M_A    0.0000
   1830 H          36.5536   57.5318   33.1484 H       184      M_A    0.0000
   1831 C          37.0294   58.2348   31.6733 C.3     185      M_A    0.0000
   1832 C          38.0775   58.3834   32.2265 C.3     185      M_A    0.0000
   1833 H          37.1401   57.7946   30.9489 H       185      M_A    0.0000
   1834 H          36.7046   58.9940   31.4520 H       185      M_A    0.0000
   1835 H          38.1164   59.1623   32.5767 H       185      M_A    0.0000
   1836 H          38.1531   57.8222   32.8670 H       185      M_A    0.0000
   1837 C          39.0251   58.2450   31.4679 C.3     186      M_A    0.0000
   1838 C          40.0057   58.8013   31.8624 C.3     186      M_A    0.0000
   1839 H          39.1807   57.4100   31.3709 H       186      M_A    0.0000
   1840 H          38.8075   58.5453   30.6976 H       186      M_A    0.0000
   1841 H          40.7047   58.4118   31.5613 H       186      M_A    0.0000
   1842 H          40.0258   59.6037   31.5683 H       186      M_A    0.0000
   1843 C          40.0640   58.8274   33.0823 C.3     187      M_A    0.0000
   1844 C          41.0426   59.3872   33.4768 C.3     187      M_A    0.0000
   1845 H          39.3636   59.2142   33.3835 H       187      M_A    0.0000
   1846 H          40.0468   58.0248   33.3763 H       187      M_A    0.0000
   1847 H          40.8225   60.0487   33.9716 H       187      M_A    0.0000
   1848 H          41.5058   58.8593   33.9644 H       187      M_A    0.0000
   1849 C          41.7429   59.7950   32.5626 C.3     188      M_A    0.0000
   1850 C          42.5533   60.5902   32.9333 C.3     188      M_A    0.0000
   1851 H          42.1327   59.1285   32.1957 H       188      M_A    0.0000
   1852 H          41.2406   60.1448   31.9657 H       188      M_A    0.0000
   1853 H          42.1729   61.2062   33.3879 H       188      M_A    0.0000
   1854 H          43.1170   60.2133   33.4540 H       188      M_A    0.0000
   1855 C          43.1576   61.1030   32.0037 C.3     189      M_A    0.0000
   1856 C          43.5268   62.2097   32.2594 C.3     189      M_A    0.0000
   1857 H          43.8267   60.6095   31.8043 H       189      M_A    0.0000
   1858 H          42.6483   61.1151   31.3172 H       189      M_A    0.0000
   1859 H          43.9882   62.2059   32.9791 H       189      M_A    0.0000
   1860 H          44.0408   62.4977   31.6399 H       189      M_A    0.0000
   1861 C          42.5957   62.9892   32.3926 C.3     190      M_A    0.0000
   1862 C          42.6767   63.6229   33.4018 C.3     190      M_A    0.0000
   1863 H          42.5767   63.5137   31.7178 H       190      M_A    0.0000
   1864 H          41.8634   62.5481   32.3814 H       190      M_A    0.0000
   1865 H          41.9902   64.1250   33.4885 H       190      M_A    0.0000
   1866 H          42.6844   63.0988   34.0772 H       190      M_A    0.0000
   1867 C          43.6801   64.3190   33.4320 C.3     191      M_A    0.0000
   1868 C          43.4226   65.4796   33.5467 C.3     191      M_A    0.0000
   1869 H          44.1738   64.0628   34.0813 H       191      M_A    0.0000
   1870 H          44.1284   64.1875   32.7160 H       191      M_A    0.0000
   1871 H          43.1008   65.6331   34.3237 H       191      M_A    0.0000
   1872 H          44.1358   65.9462   33.4798 H       191      M_A    0.0000
   1873 C          42.6221   65.8614   32.7065 C.3     192      M_A    0.0000
   1874 C          42.7895   67.0059   32.4089 C.3     192      M_A    0.0000
   1875 H          42.6919   65.3652   32.0139 H       192      M_A    0.0000
   1876 H          41.8304   65.7501   33.0095 H       192      M_A    0.0000
   1877 H          43.5823   67.2497   32.6160 H       192      M_A    0.0000
   1878 H          42.7161   67.1025   31.5627 H       192      M_A    0.0000
   1879 C          41.9922   67.7491   32.9607 C.3     193      M_A    0.0000
   1880 C          42.4512   68.2601   33.9378 C.2     193      M_A    0.0000
   1881 H          41.7449   68.3495   32.4046 H       193      M_A    0.0000
   1882 H          41.2935   67.3009   33.1649 H       193      M_A    0.0000
   1883 H          42.6986   67.6597   34.4939 H       193      M_A    0.0000
   1884 H          43.1499   68.7083   33.7335 H       193      M_A    0.0000
   1885 C          23.4103   53.0061    8.4246 C.2     194      M_A    0.0000
   1886 C          21.8938   53.1997    8.3153 C.3     194      M_A    0.0000
   1887 H          23.6982   52.8764    9.4753 H       194      M_A    0.0000
   1888 H          23.9308   53.9018    8.0636 H       194      M_A    0.0000
   1889 H          21.6526   53.7811    7.4168 H       194      M_A    0.0000
   1890 H          21.3975   52.2277    8.2042 H       194      M_A    0.0000
   1891 C          21.2967   53.9319    9.5663 C.3     195      M_A    0.0000
   1892 C          20.9068   53.0436   10.8644 C.3     195      M_A    0.0000
   1893 H          22.1798   54.6401    9.8196 H       195      M_A    0.0000
   1894 H          20.4038   54.6079    9.2641 H       195      M_A    0.0000
   1895 H          21.6098   52.1243   10.9430 H       195      M_A    0.0000
   1896 H          21.0609   53.6645   11.8320 H       195      M_A    0.0000
   1897 C          19.3372   52.5133   10.8143 C.3     196      M_A    0.0000
   1898 C          19.0920   51.2290   11.7717 C.3     196      M_A    0.0000
   1899 H          18.6382   53.3836   11.1295 H       196      M_A    0.0000
   1900 H          19.0666   52.2493    9.7176 H       196      M_A    0.0000
   1901 H          20.0039   51.0750   12.4719 H       196      M_A    0.0000
   1902 H          18.1738   51.4127   12.4562 H       196      M_A    0.0000
   1903 C          18.8428   49.8381   10.9053 C.3     197      M_A    0.0000
   1904 C          19.6650   48.5806   11.5126 C.3     197      M_A    0.0000
   1905 H          17.7070   49.6028   10.8945 H       197      M_A    0.0000
   1906 H          19.1551   50.0228    9.8035 H       197      M_A    0.0000
   1907 H          20.8058   48.7745   11.4311 H       197      M_A    0.0000
   1908 H          19.4278   48.4581   12.6414 H       197      M_A    0.0000
   1909 C          19.3075   47.1614   10.7344 C.3     198      M_A    0.0000
   1910 C          19.6766   45.8610   11.6282 C.3     198      M_A    0.0000
   1911 H          18.1781   47.1545   10.4696 H       198      M_A    0.0000
   1912 H          19.8855   47.1303    9.7292 H       198      M_A    0.0000
   1913 H          20.8213   45.6746   11.6054 H       198      M_A    0.0000
   1914 H          19.3914   46.0466   12.7371 H       198      M_A    0.0000
   1915 C          18.9021   44.4945   11.0988 C.3     199      M_A    0.0000
   1916 C          19.7427   43.1475   11.4231 C.3     199      M_A    0.0000
   1917 H          17.8563   44.4405   11.5976 H       199      M_A    0.0000
   1918 H          18.7220   44.5856    9.9565 H       199      M_A    0.0000
   1919 H          20.5054   43.3497   12.2734 H       199      M_A    0.0000
   1920 H          19.0299   42.3163   11.8057 H       199      M_A    0.0000
   1921 C          20.5595   42.5820   10.0963 C.3     200      M_A    0.0000
   1922 C          21.4721   41.2883   10.4422 C.3     200      M_A    0.0000
   1923 H          19.7907   42.3168    9.2691 H       200      M_A    0.0000
   1924 H          21.2224   43.4349    9.6738 H       200      M_A    0.0000
   1925 H          20.7956   40.3769   10.6813 H       200      M_A    0.0000
   1926 H          22.1123   40.9952    9.5204 H       200      M_A    0.0000
   1927 C          22.4809   41.5573   11.7296 C.3     201      M_A    0.0000
   1928 C          23.8616   42.2812   11.2871 C.3     201      M_A    0.0000
   1929 H          21.9236   42.2078   12.5117 H       201      M_A    0.0000
   1930 H          22.7105   40.5428   12.2430 H       201      M_A    0.0000
   1931 H          24.4441   41.6067   10.5446 H       201      M_A    0.0000
   1932 H          23.6303   43.2705   10.7274 H       201      M_A    0.0000
   1933 C          24.8385   42.6165   12.5835 C.3     202      M_A    0.0000
   1934 C          25.7736   43.9152   12.3281 C.3     202      M_A    0.0000
   1935 H          24.1737   42.7830   13.5194 H       202      M_A    0.0000
   1936 H          25.4983   41.6885   12.8044 H       202      M_A    0.0000
   1937 H          26.7292   43.6089   11.7463 H       202      M_A    0.0000
   1938 H          25.2129   44.6851   11.6660 H       202      M_A    0.0000
   1939 C          26.2229   44.6536   13.7424 C.3     203      M_A    0.0000
   1940 C          27.8327   44.7600   13.8952 C.3     203      M_A    0.0000
   1941 H          25.7491   45.7118   13.7785 H       203      M_A    0.0000
   1942 H          25.7773   44.0586   14.6328 H       203      M_A    0.0000
   1943 H          28.2955   45.2047   12.9289 H       203      M_A    0.0000
   1944 H          28.1031   45.4860   14.7586 H       203      M_A    0.0000
   1945 C          28.5339   43.2884   14.1952 C.3     204      M_A    0.0000
   1946 C          30.1278   43.2965   13.9029 C.2     204      M_A    0.0000
   1947 H          28.3335   42.9970   15.2999 H       204      M_A    0.0000
   1948 H          28.0133   42.4856   13.5393 H       204      M_A    0.0000
   1949 H          30.3281   43.5879   12.7981 H       204      M_A    0.0000
   1950 H          30.6483   44.0993   14.5587 H       204      M_A    0.0000
   1951 C          18.1943   47.5380    9.1578 C.2     205      M_A    0.0000
   1952 C          18.6781   48.5668    9.2536 C.3     205      M_A    0.0000
   1953 H          18.3671   47.0851    9.8150 H       205      M_A    0.0000
   1954 H          18.5022   47.1427    8.5130 H       205      M_A    0.0000
   1955 H          18.4114   49.0581    8.6584 H       205      M_A    0.0000
   1956 H          18.4601   48.9141    9.9597 H       205      M_A    0.0000
   1957 C          19.8428   48.5140    9.2041 C.3     206      M_A    0.0000
   1958 C          20.2118   47.9735    8.2697 C.3     206      M_A    0.0000
   1959 H          20.1417   49.2737    9.2246 H       206      M_A    0.0000
   1960 H          20.1178   48.1357    9.8734 H       206      M_A    0.0000
   1961 H          19.5767   47.6996    7.8355 H       206      M_A    0.0000
   1962 H          20.6186   48.4926    7.7882 H       206      M_A    0.0000
   1963 C          20.9086   47.0732    8.5257 C.3     207      M_A    0.0000
   1964 C          21.0576   46.3750    7.6359 C.3     207      M_A    0.0000
   1965 H          21.6293   47.3619    8.7789 H       207      M_A    0.0000
   1966 H          20.5871   46.6618    9.1536 H       207      M_A    0.0000
   1967 H          20.4126   46.4159    7.1368 H       207      M_A    0.0000
   1968 H          21.7066   46.6114    7.2001 H       207      M_A    0.0000
   1969 C          21.2091   45.2657    7.9646 C.3     208      M_A    0.0000
   1970 C          22.3060   44.9531    7.9389 C.3     208      M_A    0.0000
   1971 H          20.9086   45.1711    8.7180 H       208      M_A    0.0000
   1972 H          20.7690   44.7834    7.4742 H       208      M_A    0.0000
   1973 H          22.6822   45.3035    7.3045 H       208      M_A    0.0000
   1974 H          22.6876   45.2150    8.6117 H       208      M_A    0.0000
   1975 C          22.4343   43.7960    7.8601 C.3     209      M_A    0.0000
   1976 C          22.8716   43.3436    8.8118 C.3     209      M_A    0.0000
   1977 H          21.7072   43.4609    7.6992 H       209      M_A    0.0000
   1978 H          22.9163   43.6274    7.2228 H       209      M_A    0.0000
   1979 H          23.3481   43.8897    9.1880 H       209      M_A    0.0000
   1980 H          22.2722   43.1563    9.3338 H       209      M_A    0.0000
   1981 C          23.4977   42.3826    8.5974 C.3     210      M_A    0.0000
   1982 C          24.1626   42.0942    9.4785 C.3     210      M_A    0.0000
   1983 H          22.9875   41.7703    8.4194 H       210      M_A    0.0000
   1984 H          23.9539   42.5086    7.9319 H       210      M_A    0.0000
   1985 H          23.7030   41.9187   10.1303 H       210      M_A    0.0000
   1986 H          24.5854   41.4186    9.3009 H       210      M_A    0.0000
   1987 C          24.9114   42.9425    9.7637 C.3     211      M_A    0.0000
   1988 C          25.9980   42.6269    9.6182 C.3     211      M_A    0.0000
   1989 H          24.7480   43.6014    9.3097 H       211      M_A    0.0000
   1990 H          24.7835   43.1560   10.5414 H       211      M_A    0.0000
   1991 H          26.2888   42.2984   10.3070 H       211      M_A    0.0000
   1992 H          26.0471   42.0486    9.0438 H       211      M_A    0.0000
   1993 C          26.6810   43.5216    9.3107 C.3     212      M_A    0.0000
   1994 C          27.0732   43.4195    8.2442 C.3     212      M_A    0.0000
   1995 H          26.2569   44.2151    9.3878 H       212      M_A    0.0000
   1996 H          27.3051   43.5688    9.8352 H       212      M_A    0.0000
   1997 H          27.8244   43.0992    8.2517 H       212      M_A    0.0000
   1998 H          26.6025   42.9036    7.8210 H       212      M_A    0.0000
   1999 C          27.1063   44.4432    7.6853 C.3     213      M_A    0.0000
   2000 C          26.7681   44.3540    6.5994 C.3     213      M_A    0.0000
   2001 H          26.6324   44.9759    8.0833 H       213      M_A    0.0000
   2002 H          27.8677   44.7366    7.7182 H       213      M_A    0.0000
   2003 H          27.2339   43.8118    6.2046 H       213      M_A    0.0000
   2004 H          26.0021   44.0728    6.5669 H       213      M_A    0.0000
   2005 C          26.8184   45.3743    6.0353 C.3     214      M_A    0.0000
   2006 C          26.3973   45.3047    4.9774 C.3     214      M_A    0.0000
   2007 H          26.4058   45.9331    6.4647 H       214      M_A    0.0000
   2008 H          27.5956   45.6238    6.0115 H       214      M_A    0.0000
   2009 H          26.9455   44.9599    4.4799 H       214      M_A    0.0000
   2010 H          25.7380   44.8229    4.9696 H       214      M_A    0.0000
   2011 C          26.1047   46.3495    4.5482 C.3     215      M_A    0.0000
   2012 C          26.7635   46.6555    3.6684 C.3     215      M_A    0.0000
   2013 H          25.3215   46.3296    4.3178 H       215      M_A    0.0000
   2014 H          26.1595   46.9040    5.1451 H       215      M_A    0.0000
   2015 H          27.5504   46.6274    3.8848 H       215      M_A    0.0000
   2016 H          26.6707   46.1277    3.0523 H       215      M_A    0.0000
   2017 C          26.5173   47.7294    3.2841 C.3     216      M_A    0.0000
   2018 C          27.4399   48.3998    3.2536 C.2     216      M_A    0.0000
   2019 H          26.1874   47.6731    2.5392 H       216      M_A    0.0000
   2020 H          25.9481   48.0583    3.7685 H       216      M_A    0.0000
   2021 H          27.7699   48.4561    3.9984 H       216      M_A    0.0000
   2022 H          28.0091   48.0709    2.7692 H       216      M_A    0.0000
   2023 C          48.3478   23.8874   42.4555 C.2     217      M_A    0.0000
   2024 C          47.2023   24.5415   41.9161 C.3     217      M_A    0.0000
   2025 H          48.5481   24.2460   43.3893 H       217      M_A    0.0000
   2026 H          49.1675   24.0883   41.8825 H       217      M_A    0.0000
   2027 H          46.8290   24.0044   41.1333 H       217      M_A    0.0000
   2028 H          46.4634   24.5884   42.6180 H       217      M_A    0.0000
   2029 C          47.5020   25.8927   41.4585 C.3     218      M_A    0.0000
   2030 C          48.6746   26.4227   42.0710 C.3     218      M_A    0.0000
   2031 H          47.6126   25.8794   40.4445 H       218      M_A    0.0000
   2032 H          46.7014   26.4926   41.6581 H       218      M_A    0.0000
   2033 H          48.4196   27.0078   42.8668 H       218      M_A    0.0000
   2034 H          49.2509   25.6649   42.4374 H       218      M_A    0.0000
   2035 C          49.4732   27.2139   41.1430 C.3     219      M_A    0.0000
   2036 C          50.8078   26.7274   41.0282 C.3     219      M_A    0.0000
   2037 H          49.0187   27.2073   40.2298 H       219      M_A    0.0000
   2038 H          49.4804   28.1837   41.4595 H       219      M_A    0.0000
   2039 H          51.2898   26.8140   41.9231 H       219      M_A    0.0000
   2040 H          50.7992   25.7343   40.7950 H       219      M_A    0.0000
   2041 C          51.5709   27.4419   40.0124 C.3     220      M_A    0.0000
   2042 C          51.7822   26.6554   38.8428 C.3     220      M_A    0.0000
   2043 H          51.0749   28.3003   39.7718 H       220      M_A    0.0000
   2044 H          52.4666   27.7232   40.4113 H       220      M_A    0.0000
   2045 H          52.7169   26.8254   38.4712 H       220      M_A    0.0000
   2046 H          51.7353   25.6633   39.0753 H       220      M_A    0.0000
   2047 C          50.8034   26.9407   37.8010 C.3     221      M_A    0.0000
   2048 C          51.3349   27.7735   36.7739 C.3     221      M_A    0.0000
   2049 H          50.4797   26.0586   37.4036 H       221      M_A    0.0000
   2050 H          49.9903   27.3860   38.2267 H       221      M_A    0.0000
   2051 H          52.0779   28.3624   37.1506 H       221      M_A    0.0000
   2052 H          51.7572   27.2010   36.0428 H       221      M_A    0.0000
   2053 C          50.3176   28.6274   36.1733 C.3     222      M_A    0.0000
   2054 C          50.4881   29.9985   36.5228 C.3     222      M_A    0.0000
   2055 H          50.3530   28.5179   35.1596 H       222      M_A    0.0000
   2056 H          49.3977   28.3023   36.4711 H       222      M_A    0.0000
   2057 H          51.0571   30.0764   37.3660 H       222      M_A    0.0000
   2058 H          50.9920   30.4880   35.7832 H       222      M_A    0.0000
   2059 C          49.2160   30.6728   36.7506 C.3     223      M_A    0.0000
   2060 C          49.2960   32.0744   36.5046 C.3     223      M_A    0.0000
   2061 H          48.5082   30.2519   36.1484 H       223      M_A    0.0000
   2062 H          48.9212   30.5028   37.7122 H       223      M_A    0.0000
   2063 H          48.4770   32.5445   36.8905 H       223      M_A    0.0000
   2064 H          50.1096   32.4668   36.9786 H       223      M_A    0.0000
   2065 C          49.3874   32.3813   35.0825 C.3     224      M_A    0.0000
   2066 C          49.8288   33.7155   34.8452 C.3     224      M_A    0.0000
   2067 H          50.0262   31.7182   34.6434 H       224      M_A    0.0000
   2068 H          48.4729   32.2342   34.6550 H       224      M_A    0.0000
   2069 H          49.0276   34.3247   34.6793 H       224      M_A    0.0000
   2070 H          50.3064   34.0779   35.6706 H       224      M_A    0.0000
   2071 C          50.7309   33.8041   33.7036 C.3     225      M_A    0.0000
   2072 C          51.1724   35.1382   33.4664 C.3     225      M_A    0.0000
   2073 H          51.5320   33.1948   33.8695 H       225      M_A    0.0000
   2074 H          50.2532   33.4417   32.8782 H       225      M_A    0.0000
   2075 H          50.5054   35.6263   32.8684 H       225      M_A    0.0000
   2076 H          51.2111   35.6553   34.3449 H       225      M_A    0.0000
   2077 C          52.4867   35.1816   32.8374 C.3     226      M_A    0.0000
   2078 C          52.4368   35.7194   31.5185 C.3     226      M_A    0.0000
   2079 H          53.1115   35.7398   33.4194 H       226      M_A    0.0000
   2080 H          52.8722   34.2373   32.8158 H       226      M_A    0.0000
   2081 H          51.6016   36.2943   31.4066 H       226      M_A    0.0000
   2082 H          53.2373   36.3316   31.3599 H       226      M_A    0.0000
   2083 C          52.4314   34.6790   30.4975 C.3     227      M_A    0.0000
   2084 C          51.1254   34.4350   29.9819 C.3     227      M_A    0.0000
   2085 H          53.0594   34.9557   29.7427 H       227      M_A    0.0000
   2086 H          52.8148   33.8228   30.8985 H       227      M_A    0.0000
   2087 H          50.4214   34.7745   30.6376 H       227      M_A    0.0000
   2088 H          50.9901   34.9521   29.1131 H       227      M_A    0.0000
   2089 C          50.8872   33.0195   29.7281 C.3     228      M_A    0.0000
   2090 C          49.4979   32.7097   29.6574 C.3     228      M_A    0.0000
   2091 H          51.3483   32.7596   28.8561 H       228      M_A    0.0000
   2092 H          51.3300   32.4738   30.4676 H       228      M_A    0.0000
   2093 H          48.9548   33.4258   30.1400 H       228      M_A    0.0000
   2094 H          49.1879   32.7124   28.6855 H       228      M_A    0.0000
   2095 C          49.1907   31.4115   30.2449 C.3     229      M_A    0.0000
   2096 C          47.9944   31.4384   31.0191 C.3     229      M_A    0.0000
   2097 H          49.1076   30.7233   29.4965 H       229      M_A    0.0000
   2098 H          49.9767   31.1192   30.8258 H       229      M_A    0.0000
   2099 H          48.1379   31.9893   31.8656 H       229      M_A    0.0000
   2100 H          47.2486   31.8961   30.4946 H       229      M_A    0.0000
   2101 C          47.5511   30.1024   31.3974 C.3     230      M_A    0.0000
   2102 C          46.5290   30.1334   32.3902 C.3     230      M_A    0.0000
   2103 H          47.2148   29.6192   30.5643 H       230      M_A    0.0000
   2104 H          48.3541   29.5737   31.7386 H       230      M_A    0.0000
   2105 H          46.9240   30.4060   33.2904 H       230      M_A    0.0000
   2106 H          45.8307   30.8376   32.1514 H       230      M_A    0.0000
   2107 C          45.8646   28.8445   32.5396 C.3     231      M_A    0.0000
   2108 C          44.9338   28.8386   33.6188 C.3     231      M_A    0.0000
   2109 H          45.3892   28.6165   31.6663 H       231      M_A    0.0000
   2110 H          46.5726   28.1245   32.6843 H       231      M_A    0.0000
   2111 H          44.0420   28.4519   33.3093 H       231      M_A    0.0000
   2112 H          45.2709   28.2341   34.3682 H       231      M_A    0.0000
   2113 C          44.7052   30.1732   34.1586 C.3     232      M_A    0.0000
   2114 C          43.3632   30.3535   34.6032 C.3     232      M_A    0.0000
   2115 H          45.3536   30.3313   34.9301 H       232      M_A    0.0000
   2116 H          44.9312   30.8615   33.4403 H       232      M_A    0.0000
   2117 H          43.2998   31.1800   35.1977 H       232      M_A    0.0000
   2118 H          42.7496   30.5187   33.8052 H       232      M_A    0.0000
   2119 C          42.8679   29.2012   35.3461 C.3     233      M_A    0.0000
   2120 C          41.8188   29.5490   36.2458 C.3     233      M_A    0.0000
   2121 H          42.5413   28.4982   34.6830 H       233      M_A    0.0000
   2122 H          43.6439   28.7823   35.8588 H       233      M_A    0.0000
   2123 H          41.7075   28.8209   36.9516 H       233      M_A    0.0000
   2124 H          42.0559   30.4067   36.7447 H       233      M_A    0.0000
   2125 C          40.5454   29.7397   35.5625 C.3     234      M_A    0.0000
   2126 C          39.8922   30.9413   35.9629 C.3     234      M_A    0.0000
   2127 H          40.7108   29.7501   34.5559 H       234      M_A    0.0000
   2128 H          39.9467   28.9359   35.7527 H       234      M_A    0.0000
   2129 H          38.8981   30.8901   35.7397 H       234      M_A    0.0000
   2130 H          39.9598   31.0559   36.9743 H       234      M_A    0.0000
   2131 C          40.4585   32.1194   35.3176 C.3     235      M_A    0.0000
   2132 C          40.4189   33.2682   36.1601 C.2     235      M_A    0.0000
   2133 H          41.4212   31.9160   35.0485 H       235      M_A    0.0000
   2134 H          39.9451   32.3005   34.4549 H       235      M_A    0.0000
   2135 H          39.4562   33.4716   36.4293 H       235      M_A    0.0000
   2136 H          40.9322   33.0871   37.0229 H       235      M_A    0.0000
   2137 C          10.6929   65.2225   15.6809 C.2     236      M_A    0.0000
   2138 C           9.3925   64.6446   15.1116 C.3     236      M_A    0.0000
   2139 H          10.6813   65.1670   16.7765 H       236      M_A    0.0000
   2140 H          10.7784   66.2847   15.4201 H       236      M_A    0.0000
   2141 H           9.4869   64.5021   14.0279 H       236      M_A    0.0000
   2142 H           9.1998   63.6549   15.5439 H       236      M_A    0.0000
   2143 C           8.1581   65.5686   15.3941 C.3     237      M_A    0.0000
   2144 C           8.3658   66.9927   14.8671 C.3     237      M_A    0.0000
   2145 H           7.2691   65.1222   14.9315 H       237      M_A    0.0000
   2146 H           7.9731   65.5908   16.4752 H       237      M_A    0.0000
   2147 H           9.4359   67.1898   14.7276 H       237      M_A    0.0000
   2148 H           7.8943   67.1020   13.8826 H       237      M_A    0.0000
   2149 C           7.7742   68.0760   15.8336 C.3     238      M_A    0.0000
   2150 C           8.5117   69.4152   15.7260 C.3     238      M_A    0.0000
   2151 H           6.7105   68.2127   15.6028 H       238      M_A    0.0000
   2152 H           7.8274   67.6988   16.8624 H       238      M_A    0.0000
   2153 H           8.4274   69.8102   14.7060 H       238      M_A    0.0000
   2154 H           8.0470   70.1549   16.3897 H       238      M_A    0.0000
   2155 C          10.0301   69.2887   16.0949 C.3     239      M_A    0.0000
   2156 C          10.3691   69.9972   17.4110 C.3     239      M_A    0.0000
   2157 H          10.2900   68.2250   16.1625 H       239      M_A    0.0000
   2158 H          10.6288   69.7079   15.2769 H       239      M_A    0.0000
   2159 H          10.7291   71.0137   17.2091 H       239      M_A    0.0000
   2160 H           9.4668   70.0991   18.0266 H       239      M_A    0.0000
   2161 C          11.4592   69.2295   18.2354 C.3     240      M_A    0.0000
   2162 C          12.6637   70.1155   18.5722 C.3     240      M_A    0.0000
   2163 H          11.0025   68.8491   19.1574 H       240      M_A    0.0000
   2164 H          11.7855   68.3538   17.6608 H       240      M_A    0.0000
   2165 H          13.2006   70.3853   17.6544 H       240      M_A    0.0000
   2166 H          12.3244   71.0547   19.0265 H       240      M_A    0.0000
   2167 C          13.6629   69.4115   19.5538 C.3     241      M_A    0.0000
   2168 C          15.1259   69.6581   19.1689 C.3     241      M_A    0.0000
   2169 H          13.4751   69.7761   20.5713 H       241      M_A    0.0000
   2170 H          13.4522   68.3349   19.5609 H       241      M_A    0.0000
   2171 H          15.2259   69.6986   18.0772 H       241      M_A    0.0000
   2172 H          15.4566   70.6315   19.5519 H       241      M_A    0.0000
   2173 C          16.0815   68.5459   19.7230 C.3     242      M_A    0.0000
   2174 C          17.0797   69.0955   20.7480 C.3     242      M_A    0.0000
   2175 H          15.4749   67.7523   20.1768 H       242      M_A    0.0000
   2176 H          16.6186   68.0900   18.8820 H       242      M_A    0.0000
   2177 H          17.5528   69.7929   20.4291 H       242      M_A    0.0000
   2178 H          16.6202   69.3990   21.4613 H       242      M_A    0.0000
   2179 C          17.8990   68.1828   21.1399 C.3     243      M_A    0.0000
   2180 C          19.0978   68.4830   20.9005 C.3     243      M_A    0.0000
   2181 H          17.7844   68.0497   22.0238 H       243      M_A    0.0000
   2182 H          17.6872   67.4077   20.7320 H       243      M_A    0.0000
   2183 H          19.1361   69.1116   20.2559 H       243      M_A    0.0000
   2184 H          19.4791   68.8413   21.6342 H       243      M_A    0.0000
   2185 C          19.7911   67.4640   20.5281 C.3     244      M_A    0.0000
   2186 C          20.2583   66.8220   21.5050 C.3     244      M_A    0.0000
   2187 H          19.2707   66.9266   20.0257 H       244      M_A    0.0000
   2188 H          20.4607   67.7471   19.9957 H       244      M_A    0.0000
   2189 H          21.0283   67.1990   21.7826 H       244      M_A    0.0000
   2190 H          19.6868   66.8587   22.2006 H       244      M_A    0.0000
   2191 C          20.4814   65.5873   21.2158 C.3     245      M_A    0.0000
   2192 C          19.7540   64.8029   21.8794 C.3     245      M_A    0.0000
   2193 H          20.3425   65.4659   20.3338 H       245      M_A    0.0000
   2194 H          21.3508   65.4058   21.3681 H       245      M_A    0.0000
   2195 H          20.2048   64.4957   22.5965 H       245      M_A    0.0000
   2196 H          19.0336   65.2424   22.1953 H       245      M_A    0.0000
   2197 C          19.3537   63.7990   21.1795 C.3     246      M_A    0.0000
   2198 C          20.1384   62.8180   21.2601 C.3     246      M_A    0.0000
   2199 H          18.5308   63.5602   21.4585 H       246      M_A    0.0000
   2200 H          19.2705   64.0584   20.3206 H       246      M_A    0.0000
   2201 H          20.9874   63.0899   21.1287 H       246      M_A    0.0000
   2202 H          20.1055   62.4632   22.0877 H       246      M_A    0.0000
   2203 C          19.8597   61.8985   20.4030 C.3     247      M_A    0.0000
   2204 C          20.3074   60.7735   20.7476 C.3     247      M_A    0.0000
   2205 H          18.9653   61.8573   20.3017 H       247      M_A    0.0000
   2206 H          20.2001   62.1345   19.6027 H       247      M_A    0.0000
   2207 H          21.1798   60.8408   20.9625 H       247      M_A    0.0000
   2208 H          19.8804   60.4842   21.4865 H       247      M_A    0.0000
   2209 C          20.1755   59.8907   19.8196 C.3     248      M_A    0.0000
   2210 C          19.5667   58.8643   20.2206 C.3     248      M_A    0.0000
   2211 H          19.7337   60.2611   19.1271 H       248      M_A    0.0000
   2212 H          20.9929   59.6656   19.5145 H       248      M_A    0.0000
   2213 H          19.8911   58.6054   21.0204 H       248      M_A    0.0000
   2214 H          18.6938   59.0511   20.3436 H       248      M_A    0.0000
   2215 C          19.6685   57.8825   19.3939 C.3     249      M_A    0.0000
   2216 C          18.5463   57.4843   18.9855 C.3     249      M_A    0.0000
   2217 H          20.1770   58.1415   18.6965 H       249      M_A    0.0000
   2218 H          20.1078   57.2072   19.7976 H       249      M_A    0.0000
   2219 H          17.9233   57.6079   19.6247 H       249      M_A    0.0000
   2220 H          18.2862   57.9710   18.2732 H       249      M_A    0.0000
   2221 C          18.5607   56.2399   18.6550 C.3     250      M_A    0.0000
   2222 C          18.2858   56.0660   17.4389 C.3     250      M_A    0.0000
   2223 H          19.3744   55.8998   18.8396 H       250      M_A    0.0000
   2224 H          17.9712   55.7954   19.1717 H       250      M_A    0.0000
   2225 H          17.7482   56.7272   17.1461 H       250      M_A    0.0000
   2226 H          19.0375   56.1053   16.9436 H       250      M_A    0.0000
   2227 C          17.7071   54.9357   17.2262 C.3     251      M_A    0.0000
   2228 C          17.0941   54.9129   16.1269 C.3     251      M_A    0.0000
   2229 H          18.3280   54.2830   17.2474 H       251      M_A    0.0000
   2230 H          17.1349   54.7705   17.9024 H       251      M_A    0.0000
   2231 H          16.2210   55.0942   16.2561 H       251      M_A    0.0000
   2232 H          17.4138   55.5551   15.5815 H       251      M_A    0.0000
   2233 C          17.1983   53.7749   15.5336 C.3     252      M_A    0.0000
   2234 C          16.1630   53.4808   14.8806 C.3     252      M_A    0.0000
   2235 H          17.9132   53.7974   14.9856 H       252      M_A    0.0000
   2236 H          17.3652   53.1398   16.1507 H       252      M_A    0.0000
   2237 H          16.0700   52.5857   14.8356 H       252      M_A    0.0000
   2238 H          15.4318   53.7961   15.3023 H       252      M_A    0.0000
   2239 C          16.1893   53.9559   13.6841 C.3     253      M_A    0.0000
   2240 C          15.9774   55.1965   13.6587 C.3     253      M_A    0.0000
   2241 H          16.9910   53.7718   13.3161 H       253      M_A    0.0000
   2242 H          15.5720   53.5267   13.1876 H       253      M_A    0.0000
   2243 H          16.2242   55.5683   14.4416 H       253      M_A    0.0000
   2244 H          16.4805   55.5829   13.0188 H       253      M_A    0.0000
   2245 C          14.7398   55.4757   13.4387 C.3     254      M_A    0.0000
   2246 C          14.5878   56.6355   12.9733 C.3     254      M_A    0.0000
   2247 H          14.4019   54.8667   12.8670 H       254      M_A    0.0000
   2248 H          14.2811   55.3896   14.2095 H       254      M_A    0.0000
   2249 H          14.6628   57.2452   13.6325 H       254      M_A    0.0000
   2250 H          15.2390   56.8171   12.3775 H       254      M_A    0.0000
   2251 C          13.4456   56.7847   12.3981 C.3     255      M_A    0.0000
   2252 C          13.5551   56.9443   11.1542 C.3     255      M_A    0.0000
   2253 H          12.9357   56.0626   12.5732 H       255      M_A    0.0000
   2254 H          13.0260   57.4928   12.7647 H       255      M_A    0.0000
   2255 H          12.8561   57.4189   10.8409 H       255      M_A    0.0000
   2256 H          14.2963   57.4217   10.9680 H       255      M_A    0.0000
   2257 C          13.6130   55.8242   10.5217 C.3     256      M_A    0.0000
   2258 C          13.4840   55.9713    9.2781 C.3     256      M_A    0.0000
   2259 H          14.4007   55.4272   10.7058 H       256      M_A    0.0000
   2260 H          12.9685   55.2790   10.8368 H       256      M_A    0.0000
   2261 H          12.8205   55.4442    8.9718 H       256      M_A    0.0000
   2262 H          13.2476   56.8203    9.0903 H       256      M_A    0.0000
   2263 C          14.5658   55.6907    8.6387 C.3     257      M_A    0.0000
   2264 C          15.2245   56.7211    8.3402 C.3     257      M_A    0.0000
   2265 H          15.0675   55.1391    9.1447 H       257      M_A    0.0000
   2266 H          14.3517   55.2338    7.8922 H       257      M_A    0.0000
   2267 H          15.9117   56.5027    7.7997 H       257      M_A    0.0000
   2268 H          14.7061   57.2966    7.8798 H       257      M_A    0.0000
   2269 C          15.6891   57.3216    9.3801 C.3     258      M_A    0.0000
   2270 C          16.8629   57.7410    9.2043 C.3     258      M_A    0.0000
   2271 H          15.1434   58.0082    9.5870 H       258      M_A    0.0000
   2272 H          15.6656   56.7528   10.0786 H       258      M_A    0.0000
   2273 H          17.4011   57.0603    8.9614 H       258      M_A    0.0000
   2274 H          16.8799   58.3377    8.5293 H       258      M_A    0.0000
   2275 C          17.3463   58.2957   10.2609 C.3     259      M_A    0.0000
   2276 C          17.4510   59.5442   10.1390 C.3     259      M_A    0.0000
   2277 H          16.8159   58.0970   10.9618 H       259      M_A    0.0000
   2278 H          18.1527   57.9336   10.4359 H       259      M_A    0.0000
   2279 H          17.5401   59.7634    9.2695 H       259      M_A    0.0000
   2280 H          16.7001   59.9473   10.4317 H       259      M_A    0.0000
   2281 C          18.4563   60.0156   10.7910 C.3     260      M_A    0.0000
   2282 C          18.1975   60.1824   12.0116 C.3     260      M_A    0.0000
   2283 H          19.1533   59.4524   10.6971 H       260      M_A    0.0000
   2284 H          18.7035   60.7977   10.4179 H       260      M_A    0.0000
   2285 H          18.9378   60.4486   12.4509 H       260      M_A    0.0000
   2286 H          17.5876   60.8382   12.1113 H       260      M_A    0.0000
   2287 C          17.7487   59.1105   12.5662 C.3     261      M_A    0.0000
   2288 C          17.6126   59.2385   13.8111 C.3     261      M_A    0.0000
   2289 H          16.9584   58.8975   12.1893 H       261      M_A    0.0000
   2290 H          18.3130   58.4318   12.3852 H       261      M_A    0.0000
   2291 H          18.2876   58.8234   14.2400 H       261      M_A    0.0000
   2292 H          17.6578   60.1091   14.0390 H       261      M_A    0.0000
   2293 C          16.4951   58.7569   14.2319 C.3     262      M_A    0.0000
   2294 C          16.3994   58.7995   15.4864 C.3     262      M_A    0.0000
   2295 H          15.8194   59.2186   13.8547 H       262      M_A    0.0000
   2296 H          16.4190   57.9061   13.9449 H       262      M_A    0.0000
   2297 H          17.2132   58.7054   15.8617 H       262      M_A    0.0000
   2298 H          16.0865   59.6039   15.7453 H       262      M_A    0.0000
   2299 C          15.6212   57.8833   15.9478 C.3     263      M_A    0.0000
   2300 C          14.5125   58.3448   16.3254 C.3     263      M_A    0.0000
   2301 H          15.4951   57.2605   15.3090 H       263      M_A    0.0000
   2302 H          16.0338   57.4703   16.6341 H       263      M_A    0.0000
   2303 H          14.5337   58.5147   17.2101 H       263      M_A    0.0000
   2304 H          14.3487   59.1301   15.9150 H       263      M_A    0.0000
   2305 C          13.5393   57.5379   16.0810 C.3     264      M_A    0.0000
   2306 C          13.4112   56.6604   16.9744 C.3     264      M_A    0.0000
   2307 H          12.7786   58.0149   16.0051 H       264      M_A    0.0000
   2308 H          13.6802   57.1467   15.2816 H       264      M_A    0.0000
   2309 H          13.9831   56.8231   17.6515 H       264      M_A    0.0000
   2310 H          12.5810   56.6935   17.3233 H       264      M_A    0.0000
   2311 C          13.6260   55.4726   16.5262 C.3     265      M_A    0.0000
   2312 C          12.5764   54.7783   16.4927 C.3     265      M_A    0.0000
   2313 H          13.9824   55.5337   15.7008 H       265      M_A    0.0000
   2314 H          14.2441   55.0733   17.0461 H       265      M_A    0.0000
   2315 H          12.5024   54.2935   17.2487 H       265      M_A    0.0000
   2316 H          11.8527   55.3139   16.4569 H       265      M_A    0.0000
   2317 C          12.5518   53.9793   15.4833 C.3     266      M_A    0.0000
   2318 C          12.7431   52.7811   15.8185 C.3     266      M_A    0.0000
   2319 H          11.7564   54.0607   15.0678 H       266      M_A    0.0000
   2320 H          13.1804   54.2389   14.8921 H       266      M_A    0.0000
   2321 H          13.6018   52.6624   16.0646 H       266      M_A    0.0000
   2322 H          12.2377   52.5765   16.5359 H       266      M_A    0.0000
   2323 C          12.4665   51.9582   14.8676 C.3     267      M_A    0.0000
   2324 C          13.4025   51.1441   14.6537 C.3     267      M_A    0.0000
   2325 H          11.7121   51.5131   15.0790 H       267      M_A    0.0000
   2326 H          12.2887   52.4280   14.1195 H       267      M_A    0.0000
   2327 H          14.1982   51.5488   14.7767 H       267      M_A    0.0000
   2328 H          13.3631   50.4656   15.2454 H       267      M_A    0.0000
   2329 C          13.3639   50.6582   13.4619 C.3     268      M_A    0.0000
   2330 C          13.4367   49.4015   13.4565 C.3     268      M_A    0.0000
   2331 H          12.6008   50.9253   13.0640 H       268      M_A    0.0000
   2332 H          14.0419   51.0090   12.9832 H       268      M_A    0.0000
   2333 H          13.7924   49.1092   14.2311 H       268      M_A    0.0000
   2334 H          12.6113   49.0445   13.3998 H       268      M_A    0.0000
   2335 C          14.1486   48.9581   12.4795 C.3     269      M_A    0.0000
   2336 C          13.4435   48.4649   11.5607 C.2     269      M_A    0.0000
   2337 H          14.6499   49.6332   12.1557 H       269      M_A    0.0000
   2338 H          14.7218   48.3388   12.7955 H       269      M_A    0.0000
   2339 H          12.9422   47.7898   11.8846 H       269      M_A    0.0000
   2340 H          12.8704   49.0843   11.2448 H       269      M_A    0.0000
   2341 C          22.4367   35.2332   18.6036 C.2     270      M_A    0.0000
   2342 C          21.4822   35.8762   18.2301 C.3     270      M_A    0.0000
   2343 H          22.6520   35.4627   19.4105 H       270      M_A    0.0000
   2344 H          23.1237   35.4045   18.1047 H       270      M_A    0.0000
   2345 H          20.9317   35.3665   17.7973 H       270      M_A    0.0000
   2346 H          21.0487   36.1877   18.9122 H       270      M_A    0.0000
   2347 C          21.8093   36.8205   17.5002 C.3     271      M_A    0.0000
   2348 C          21.6584   36.5668   16.3268 C.3     271      M_A    0.0000
   2349 H          21.3404   37.5159   17.7163 H       271      M_A    0.0000
   2350 H          22.6373   37.0205   17.6567 H       271      M_A    0.0000
   2351 H          22.3910   36.2445   15.9960 H       271      M_A    0.0000
   2352 H          21.0522   35.9557   16.2307 H       271      M_A    0.0000
   2353 C          21.3285   37.5627   15.6702 C.3     272      M_A    0.0000
   2354 C          20.4495   37.3175   14.8756 C.3     272      M_A    0.0000
   2355 H          21.0709   38.1840   16.2158 H       272      M_A    0.0000
   2356 H          22.0257   37.8680   15.2569 H       272      M_A    0.0000
   2357 H          20.6150   36.5699   14.4710 H       272      M_A    0.0000
   2358 H          19.6955   37.2150   15.2892 H       272      M_A    0.0000
   2359 C          20.3213   38.2100   14.0279 C.3     273      M_A    0.0000
   2360 C          19.5417   37.9043   13.1545 C.3     273      M_A    0.0000
   2361 H          20.0562   38.9339   14.4225 H       273      M_A    0.0000
   2362 H          21.0978   38.3835   13.6855 H       273      M_A    0.0000
   2363 H          19.9315   37.3930   12.5741 H       273      M_A    0.0000
   2364 H          18.8862   37.4471   13.4882 H       273      M_A    0.0000
   2365 C          19.0813   38.8930   12.5696 C.3     274      M_A    0.0000
   2366 C          18.7692   38.6457   11.4270 C.3     274      M_A    0.0000
   2367 H          18.3936   39.1823   13.0093 H       274      M_A    0.0000
   2368 H          19.6714   39.5268   12.5857 H       274      M_A    0.0000
   2369 H          19.4769   38.5941   10.9303 H       274      M_A    0.0000
   2370 H          18.3798   37.8732   11.3861 H       274      M_A    0.0000
   2371 C          18.0104   39.5006   10.9526 C.3     275      M_A    0.0000
   2372 C          16.9686   39.0238   10.5635 C.3     275      M_A    0.0000
   2373 H          17.8547   40.1017   11.5564 H       275      M_A    0.0000
   2374 H          18.4151   39.9021   10.3005 H       275      M_A    0.0000
   2375 H          17.0634   38.1737   10.4279 H       275      M_A    0.0000
   2376 H          16.3567   39.1122   11.1700 H       275      M_A    0.0000
   2377 C          16.5725   39.5529    9.5172 C.3     276      M_A    0.0000
   2378 C          16.4974   38.7629    8.6037 C.3     276      M_A    0.0000
   2379 H          15.7985   39.9134    9.6623 H       276      M_A    0.0000
   2380 H          17.1120   40.1976    9.3087 H       276      M_A    0.0000
   2381 H          16.4560   37.9548    8.9126 H       276      M_A    0.0000
   2382 H          15.7683   38.8956    8.1556 H       276      M_A    0.0000
   2383 C          17.4610   38.8459    7.8315 C.3     277      M_A    0.0000
   2384 C          17.1292   38.7479    6.6720 C.3     277      M_A    0.0000
   2385 H          17.8599   39.6033    7.9633 H       277      M_A    0.0000
   2386 H          18.0322   38.2260    8.0303 H       277      M_A    0.0000
   2387 H          17.6891   38.2442    6.2445 H       277      M_A    0.0000
   2388 H          16.3554   38.3629    6.6161 H       277      M_A    0.0000
   2389 C          17.0695   39.8473    6.1067 C.3     278      M_A    0.0000
   2390 C          15.9363   40.1486    5.8083 C.3     278      M_A    0.0000
   2391 H          17.4089   40.4487    6.6294 H       278      M_A    0.0000
   2392 H          17.5671   39.8242    5.3982 H       278      M_A    0.0000
   2393 H          15.9405   40.6785    5.1233 H       278      M_A    0.0000
   2394 H          15.4932   39.4423    5.5737 H       278      M_A    0.0000
   2395 C          15.3382   40.7039    6.7386 C.3     279      M_A    0.0000
   2396 C          14.7420   41.6922    6.3754 C.2     279      M_A    0.0000
   2397 H          14.7867   40.1380    7.0933 H       279      M_A    0.0000
   2398 H          15.9110   40.9120    7.3540 H       279      M_A    0.0000
   2399 H          15.2935   42.2581    6.0208 H       279      M_A    0.0000
   2400 H          14.1692   41.4841    5.7600 H       279      M_A    0.0000
   2401 C          30.3963   62.1046    5.0613 C.2     280      M_A    0.0000
   2402 C          30.1198   60.8687    4.1982 C.3     280      M_A    0.0000
   2403 H          29.8311   62.0423    5.9995 H       280      M_A    0.0000
   2404 H          30.0510   63.0090    4.5450 H       280      M_A    0.0000
   2405 H          30.8954   60.7658    3.4292 H       280      M_A    0.0000
   2406 H          30.1645   59.9620    4.8141 H       280      M_A    0.0000
   2407 C          28.7190   60.9348    3.4974 C.3     281      M_A    0.0000
   2408 C          27.6600   60.1099    4.2370 C.3     281      M_A    0.0000
   2409 H          28.4035   61.9837    3.4359 H       281      M_A    0.0000
   2410 H          28.8225   60.5760    2.4658 H       281      M_A    0.0000
   2411 H          26.6551   60.4401    3.9459 H       281      M_A    0.0000
   2412 H          27.7394   59.0535    3.9520 H       281      M_A    0.0000
   2413 C          27.7983   60.2249    5.7943 C.3     282      M_A    0.0000
   2414 C          26.8310   59.2939    6.5336 C.3     282      M_A    0.0000
   2415 H          28.8329   59.9925    6.0755 H       282      M_A    0.0000
   2416 H          27.6178   61.2660    6.0894 H       282      M_A    0.0000
   2417 H          25.9297   59.8454    6.8287 H       282      M_A    0.0000
   2418 H          26.5024   58.4868    5.8672 H       282      M_A    0.0000
   2419 C          27.4775   58.6606    7.8136 C.3     283      M_A    0.0000
   2420 C          26.6985   59.0037    9.0882 C.3     283      M_A    0.0000
   2421 H          27.5259   57.5723    7.6838 H       283      M_A    0.0000
   2422 H          28.5126   59.0141    7.8988 H       283      M_A    0.0000
   2423 H          25.6238   58.8582    8.9228 H       283      M_A    0.0000
   2424 H          26.9872   58.3243    9.8998 H       283      M_A    0.0000
   2425 C          26.9427   60.4803    9.5544 C.3     284      M_A    0.0000
   2426 C          26.2563   60.7889   10.8895 C.3     284      M_A    0.0000
   2427 H          28.0232   60.6504    9.6388 H       284      M_A    0.0000
   2428 H          26.5763   61.1618    8.7767 H       284      M_A    0.0000
   2429 H          26.8452   60.3783   11.7190 H       284      M_A    0.0000
   2430 H          26.2067   61.8738   11.0451 H       284      M_A    0.0000
   2431 C          24.8047   60.2013   10.9611 C.3     285      M_A    0.0000
   2432 C          24.2435   60.2117   12.3873 C.3     285      M_A    0.0000
   2433 H          24.1543   60.7837   10.2967 H       285      M_A    0.0000
   2434 H          24.8183   59.1766   10.5696 H       285      M_A    0.0000
   2435 H          23.1488   60.2789   12.3603 H       285      M_A    0.0000
   2436 H          24.4889   59.2706   12.8949 H       285      M_A    0.0000
   2437 C          24.8022   61.4047   13.2369 C.3     286      M_A    0.0000
   2438 C          24.4825   61.2554   14.7284 C.3     286      M_A    0.0000
   2439 H          25.8876   61.4662   13.0892 H       286      M_A    0.0000
   2440 H          24.3785   62.3410   12.8532 H       286      M_A    0.0000
   2441 H          24.9064   62.0971   15.2901 H       286      M_A    0.0000
   2442 H          23.3972   61.2868   14.8854 H       286      M_A    0.0000
   2443 C          25.0409   59.9175   15.3248 C.3     287      M_A    0.0000
   2444 C          24.4652   59.6153   16.7127 C.3     287      M_A    0.0000
   2445 H          24.8073   59.0979   14.6340 H       287      M_A    0.0000
   2446 H          26.1347   59.9832   15.3774 H       287      M_A    0.0000
   2447 H          24.7748   60.3899   17.4252 H       287      M_A    0.0000
   2448 H          23.3689   59.6389   16.6785 H       287      M_A    0.0000
   2449 C          24.9239   58.2177   17.2547 C.3     288      M_A    0.0000
   2450 C          24.1260   57.7830   18.4890 C.3     288      M_A    0.0000
   2451 H          24.8140   57.4749   16.4549 H       288      M_A    0.0000
   2452 H          25.9931   58.2655   17.4956 H       288      M_A    0.0000
   2453 H          24.1622   58.5670   19.2556 H       288      M_A    0.0000
   2454 H          23.0696   57.6483   18.2257 H       288      M_A    0.0000
   2455 C          24.6672   56.4475   19.1062 C.3     289      M_A    0.0000
   2456 C          23.5569   55.4115   19.3134 C.3     289      M_A    0.0000
   2457 H          25.4424   56.0409   18.4448 H       289      M_A    0.0000
   2458 H          25.1553   56.6722   20.0626 H       289      M_A    0.0000
   2459 H          23.2012   55.4437   20.3507 H       289      M_A    0.0000
   2460 H          22.6956   55.6509   18.6774 H       289      M_A    0.0000
   2461 C          24.0355   53.9545   18.9884 C.3     290      M_A    0.0000
   2462 C          22.8624   52.9963   18.7547 C.3     290      M_A    0.0000
   2463 H          24.6799   53.9837   18.1010 H       290      M_A    0.0000
   2464 H          24.6569   53.5933   19.8172 H       290      M_A    0.0000
   2465 H          22.1311   53.0919   19.5668 H       290      M_A    0.0000
   2466 H          22.3396   53.2609   17.8272 H       290      M_A    0.0000
   2467 C          23.3253   51.5013   18.6649 C.3     291      M_A    0.0000
   2468 C          22.1447   50.5245   18.7004 C.3     291      M_A    0.0000
   2469 H          23.8996   51.3638   17.7403 H       291      M_A    0.0000
   2470 H          24.0110   51.2929   19.4955 H       291      M_A    0.0000
   2471 H          21.3528   50.9151   19.3515 H       291      M_A    0.0000
   2472 H          21.7085   50.4252   17.6987 H       291      M_A    0.0000
   2473 C          22.5645   49.1034   19.2120 C.3     292      M_A    0.0000
   2474 C          21.6629   47.9960   18.6553 C.3     292      M_A    0.0000
   2475 H          23.6074   48.9186   18.9263 H       292      M_A    0.0000
   2476 H          22.5327   49.0988   20.3086 H       292      M_A    0.0000
   2477 H          20.7797   47.8732   19.2944 H       292      M_A    0.0000
   2478 H          21.2953   48.2749   17.6601 H       292      M_A    0.0000
   2479 C          22.4070   46.6201   18.5518 C.3     293      M_A    0.0000
   2480 C          21.4370   45.4335   18.5554 C.3     293      M_A    0.0000
   2481 H          23.0085   46.6115   17.6344 H       293      M_A    0.0000
   2482 H          23.1096   46.5341   19.3900 H       293      M_A    0.0000
   2483 H          20.6161   45.6208   19.2587 H       293      M_A    0.0000
   2484 H          20.9819   45.3166   17.5640 H       293      M_A    0.0000
   2485 C          22.1429   44.0902   18.9488 C.3     294      M_A    0.0000
   2486 C          21.2751   43.2263   19.8705 C.3     294      M_A    0.0000
   2487 H          22.3856   43.5369   18.0331 H       294      M_A    0.0000
   2488 H          23.0966   44.3223   19.4388 H       294      M_A    0.0000
   2489 H          20.9274   43.8199   20.7251 H       294      M_A    0.0000
   2490 H          20.3786   42.8888   19.3357 H       294      M_A    0.0000
   2491 C          22.0457   41.9710   20.4073 C.3     295      M_A    0.0000
   2492 C          22.1620   41.9705   21.9355 C.3     295      M_A    0.0000
   2493 H          21.5260   41.0659   20.0693 H       295      M_A    0.0000
   2494 H          23.0444   41.9487   19.9540 H       295      M_A    0.0000
   2495 H          22.0163   42.9861   22.3242 H       295      M_A    0.0000
   2496 H          21.3705   41.3493   22.3728 H       295      M_A    0.0000
   2497 C          23.5521   41.4366   22.4254 C.3     296      M_A    0.0000
   2498 C          23.5757   39.9094   22.5526 C.3     296      M_A    0.0000
   2499 H          24.3259   41.7674   21.7216 H       296      M_A    0.0000
   2500 H          23.7875   41.8983   23.3923 H       296      M_A    0.0000
   2501 H          22.9596   39.5933   23.4035 H       296      M_A    0.0000
   2502 H          23.1366   39.4506   21.6581 H       296      M_A    0.0000
   2503 C          25.0280   39.3517   22.7455 C.3     297      M_A    0.0000
   2504 C          25.0343   37.9498   23.3649 C.3     297      M_A    0.0000
   2505 H          25.5326   39.3349   21.7715 H       297      M_A    0.0000
   2506 H          25.5920   40.0461   23.3805 H       297      M_A    0.0000
   2507 H          24.8158   38.0118   24.4382 H       297      M_A    0.0000
   2508 H          24.2422   37.3371   22.9170 H       297      M_A    0.0000
   2509 C          26.4083   37.2205   23.1704 C.3     298      M_A    0.0000
   2510 C          27.2484   37.2126   24.4522 C.3     298      M_A    0.0000
   2511 H          26.2189   36.1922   22.8384 H       298      M_A    0.0000
   2512 H          26.9602   37.7159   22.3620 H       298      M_A    0.0000
   2513 H          26.9073   38.0047   25.1304 H       298      M_A    0.0000
   2514 H          27.1137   36.2627   24.9844 H       298      M_A    0.0000
   2515 C          28.7754   37.4178   24.1631 C.3     299      M_A    0.0000
   2516 C          29.4879   36.0995   23.8415 C.3     299      M_A    0.0000
   2517 H          28.8858   38.1189   23.3266 H       299      M_A    0.0000
   2518 H          29.2398   37.8932   25.0360 H       299      M_A    0.0000
   2519 H          30.2568   36.0538   24.4215 H       299      M_A    0.0000
   2520 H          28.8864   35.4008   24.1235 H       299      M_A    0.0000
   2521 C          29.8908   35.8438   22.5490 C.3     300      M_A    0.0000
   2522 C          31.2271   35.7071   22.4484 C.3     300      M_A    0.0000
   2523 H          29.4523   35.0428   22.2395 H       300      M_A    0.0000
   2524 H          29.5883   36.5621   21.9813 H       300      M_A    0.0000
   2525 H          31.6336   36.5609   22.2601 H       300      M_A    0.0000
   2526 H          31.5927   35.4056   23.2881 H       300      M_A    0.0000
   2527 C          31.5880   34.8162   21.4614 C.3     301      M_A    0.0000
   2528 C          32.6941   35.2078   20.7997 C.3     301      M_A    0.0000
   2529 H          31.7311   33.9506   21.8613 H       301      M_A    0.0000
   2530 H          30.8519   34.7188   20.8463 H       301      M_A    0.0000
   2531 H          33.1937   35.8362   21.3338 H       301      M_A    0.0000
   2532 H          33.2731   34.4521   20.6474 H       301      M_A    0.0000
   2533 C          32.3980   35.7919   19.5876 C.3     302      M_A    0.0000
   2534 C          33.2714   35.4399   18.6244 C.3     302      M_A    0.0000
   2535 H          31.5035   35.5394   19.3311 H       302      M_A    0.0000
   2536 H          32.3947   36.7499   19.6968 H       302      M_A    0.0000
   2537 H          33.9644   36.1058   18.5470 H       302      M_A    0.0000
   2538 H          33.7073   34.6127   18.8596 H       302      M_A    0.0000
   2539 C          32.6626   35.2879   17.3978 C.3     303      M_A    0.0000
   2540 C          33.5436   35.3429   16.3803 C.3     303      M_A    0.0000
   2541 H          32.1952   34.4446   17.3851 H       303      M_A    0.0000
   2542 H          31.9951   35.9759   17.2947 H       303      M_A    0.0000
   2543 H          33.9790   36.2031   16.3661 H       303      M_A    0.0000
   2544 H          34.2362   34.6841   16.5067 H       303      M_A    0.0000
   2545 C          32.9443   35.1283   15.1584 C.3     304      M_A    0.0000
   2546 C          32.9792   36.2225   14.3735 C.3     304      M_A    0.0000
   2547 H          33.3871   34.3927   14.7199 H       304      M_A    0.0000
   2548 H          32.0312   34.8549   15.3039 H       304      M_A    0.0000
   2549 H          32.6555   36.9892   14.8605 H       304      M_A    0.0000
   2550 H          33.8886   36.4190   14.1205 H       304      M_A    0.0000
   2551 C          32.2235   36.0703   13.2316 C.3     305      M_A    0.0000
   2552 C          31.2026   36.9472   13.1743 C.3     305      M_A    0.0000
   2553 H          32.7960   36.1787   12.4633 H       305      M_A    0.0000
   2554 H          31.8861   35.1676   13.2002 H       305      M_A    0.0000
   2555 H          30.4424   36.6015   13.6562 H       305      M_A    0.0000
   2556 H          31.4515   37.7730   13.6054 H       305      M_A    0.0000
   2557 C          30.8207   37.2200   11.8790 C.3     306      M_A    0.0000
   2558 C          29.6624   36.6159   11.5503 C.3     306      M_A    0.0000
   2559 H          30.7369   38.1748   11.7742 H       306      M_A    0.0000
   2560 H          31.5225   36.9365   11.2818 H       306      M_A    0.0000
   2561 H          29.1700   36.3891   12.3476 H       306      M_A    0.0000
   2562 H          29.1067   37.2197   11.0440 H       306      M_A    0.0000
   2563 C          29.8623   35.4707   10.8109 C.3     307      M_A    0.0000
   2564 C          28.7097   34.9658   10.3301 C.3     307      M_A    0.0000
   2565 H          30.4641   35.6707   10.0846 H       307      M_A    0.0000
   2566 H          30.3043   34.8165   11.3645 H       307      M_A    0.0000
   2567 H          28.8904   34.1935    9.7818 H       307      M_A    0.0000
   2568 H          28.1519   34.6651   11.0568 H       307      M_A    0.0000
   2569 C          28.0079   35.8864    9.5830 C.3     308      M_A    0.0000
   2570 C          26.8573   35.3804    9.0989 C.3     308      M_A    0.0000
   2571 H          27.8247   36.6575   10.1322 H       308      M_A    0.0000
   2572 H          28.5668   36.1893    8.8580 H       308      M_A    0.0000
   2573 H          27.0380   34.8192    8.3359 H       308      M_A    0.0000
   2574 H          26.4379   34.8197    9.7618 H       308      M_A    0.0000
   2575 C          25.9698   36.3658    8.7251 C.3     309      M_A    0.0000
   2576 C          25.5009   36.1833    7.4756 C.3     309      M_A    0.0000
   2577 H          25.2389   36.3805    9.3537 H       309      M_A    0.0000
   2578 H          26.4094   37.2213    8.7916 H       309      M_A    0.0000
   2579 H          25.3114   37.0352    7.0659 H       309      M_A    0.0000
   2580 H          26.1715   35.7566    6.9298 H       309      M_A    0.0000
   2581 C          24.3567   35.4159    7.4542 C.3     310      M_A    0.0000
   2582 C          24.0415   35.0040    6.2111 C.3     310      M_A    0.0000
   2583 H          24.4821   34.6549    8.0328 H       310      M_A    0.0000
   2584 H          23.6308   35.9300    7.8262 H       310      M_A    0.0000
   2585 H          23.8863   35.7652    5.6400 H       310      M_A    0.0000
   2586 H          24.7793   34.5160    5.8275 H       310      M_A    0.0000
   2587 C          22.9218   34.2013    6.1952 C.3     311      M_A    0.0000
   2588 C          21.8815   34.7884    5.5727 C.3     311      M_A    0.0000
   2589 H          23.1417   33.3699    5.7592 H       311      M_A    0.0000
   2590 H          22.6831   33.9829    7.1035 H       311      M_A    0.0000
   2591 H          21.9243   35.7448    5.6878 H       311      M_A    0.0000
   2592 H          21.9269   34.6215    4.6241 H       311      M_A    0.0000
   2593 C          20.6683   34.3380    6.0453 C.3     312      M_A    0.0000
   2594 C          19.6306   35.0086    5.5089 C.3     312      M_A    0.0000
   2595 H          20.5894   33.3968    5.8515 H       312      M_A    0.0000
   2596 H          20.6573   34.4248    7.0056 H       312      M_A    0.0000
   2597 H          19.9298   35.8557    5.1589 H       312      M_A    0.0000
   2598 H          19.2667   34.5147    4.7651 H       312      M_A    0.0000
   2599 C          18.6266   35.2362    6.4246 C.3     313      M_A    0.0000
   2600 C          17.7248   36.1332    5.9811 C.3     313      M_A    0.0000
   2601 H          18.1907   34.3993    6.6223 H       313      M_A    0.0000
   2602 H          19.0214   35.5442    7.2486 H       313      M_A    0.0000
   2603 H          18.1296   36.7122    5.3249 H       313      M_A    0.0000
   2604 H          16.9975   35.6799    5.5392 H       313      M_A    0.0000
   2605 C          17.2127   36.9064    7.0000 C.3     314      M_A    0.0000
   2606 C          16.2638   37.7585    6.5667 C.3     314      M_A    0.0000
   2607 H          16.8503   36.3255    7.6789 H       314      M_A    0.0000
   2608 H          17.9342   37.3963    7.4111 H       314      M_A    0.0000
   2609 H          15.4971   37.2667    6.2506 H       314      M_A    0.0000
   2610 H          15.9574   38.3105    7.2954 H       314      M_A    0.0000
   2611 C          16.7174   38.5735    5.5526 C.3     315      M_A    0.0000
   2612 C          15.8043   38.7276    4.5744 C.3     315      M_A    0.0000
   2613 H          16.9514   39.4316    5.9247 H       315      M_A    0.0000
   2614 H          17.5287   38.1978    5.1914 H       315      M_A    0.0000
   2615 H          15.1597   38.0114    4.6079 H       315      M_A    0.0000
   2616 H          15.3143   39.5475    4.7058 H       315      M_A    0.0000
   2617 C          16.3790   38.7495    3.3224 C.3     316      M_A    0.0000
   2618 C          16.7942   39.9824    2.9728 C.3     316      M_A    0.0000
   2619 H          17.1217   38.1348    3.3105 H       316      M_A    0.0000
   2620 H          15.7383   38.4221    2.6805 H       316      M_A    0.0000
   2621 H          16.5676   40.1589    2.0524 H       316      M_A    0.0000
   2622 H          16.3390   40.6471    3.5024 H       316      M_A    0.0000
   2623 C          18.1534   40.1408    3.1337 C.3     317      M_A    0.0000
   2624 C          18.7266   40.7406    2.0726 C.3     317      M_A    0.0000
   2625 H          18.3136   40.6573    3.9320 H       317      M_A    0.0000
   2626 H          18.5520   39.2751    3.2794 H       317      M_A    0.0000
   2627 H          19.6860   40.6604    2.1258 H       317      M_A    0.0000
   2628 H          18.4567   40.3004    1.2583 H       317      M_A    0.0000
   2629 C          18.3968   42.0755    1.9861 C.3     318      M_A    0.0000
   2630 C          19.4847   42.8669    1.9192 C.3     318      M_A    0.0000
   2631 H          17.8425   42.2090    1.2085 H       318      M_A    0.0000
   2632 H          17.8614   42.3136    2.7519 H       318      M_A    0.0000
   2633 H          20.2279   42.4458    2.3664 H       318      M_A    0.0000
   2634 H          19.7483   42.9896    0.9999 H       318      M_A    0.0000
   2635 C          19.2671   44.1030    2.4875 C.3     319      M_A    0.0000
   2636 C          19.2796   45.0938    1.5750 C.3     319      M_A    0.0000
   2637 H          18.4201   44.0885    2.9481 H       319      M_A    0.0000
   2638 H          19.9433   44.2610    3.1564 H       319      M_A    0.0000
   2639 H          20.1527   45.1604    1.1714 H       319      M_A    0.0000
   2640 H          18.6600   44.8957    0.8634 H       319      M_A    0.0000
   2641 C          18.9500   46.3136    2.1242 C.3     320      M_A    0.0000
   2642 C          17.8579   46.8537    1.5497 C.3     320      M_A    0.0000
   2643 H          18.8035   46.1991    3.0703 H       320      M_A    0.0000
   2644 H          19.7019   46.9099    2.0306 H       320      M_A    0.0000
   2645 H          17.9934   47.7971    1.4037 H       320      M_A    0.0000
   2646 H          17.7103   46.4579    0.6830 H       320      M_A    0.0000
   2647 C          16.7256   46.6810    2.3154 C.3     321      M_A    0.0000
   2648 C          16.0839   45.5325    2.0259 C.3     321      M_A    0.0000
   2649 H          16.9752   46.6945    3.2467 H       321      M_A    0.0000
   2650 H          16.1380   47.4324    2.1753 H       321      M_A    0.0000
   2651 H          15.3638   45.7029    1.4078 H       321      M_A    0.0000
   2652 H          16.6852   44.9191    1.5882 H       321      M_A    0.0000
   2653 C          15.5696   44.9242    3.1500 C.3     322      M_A    0.0000
   2654 C          14.6660   43.9721    2.8471 C.3     322      M_A    0.0000
   2655 H          16.2956   44.5417    3.6562 H       322      M_A    0.0000
   2656 H          15.1657   45.5970    3.7103 H       322      M_A    0.0000
   2657 H          13.8510   44.3786    2.5306 H       322      M_A    0.0000
   2658 H          14.9963   43.4192    2.1296 H       322      M_A    0.0000
   2659 C          14.3715   43.1691    3.9272 C.3     323      M_A    0.0000
   2660 C          13.2268   43.5329    4.5368 C.3     323      M_A    0.0000
   2661 H          14.3102   42.2548    3.6272 H       323      M_A    0.0000
   2662 H          15.1051   43.2069    4.5518 H       323      M_A    0.0000
   2663 H          12.5513   43.7340    3.8788 H       323      M_A    0.0000
   2664 H          12.8879   42.8024    5.0671 H       323      M_A    0.0000
   2665 C          13.3950   44.6318    5.3506 C.3     324      M_A    0.0000
   2666 C          12.3655   45.4959    5.2611 C.3     324      M_A    0.0000
   2667 H          13.4963   44.3316    6.2613 H       324      M_A    0.0000
   2668 H          14.2184   45.0727    5.1113 H       324      M_A    0.0000
   2669 H          11.5879   45.0481    4.9082 H       324      M_A    0.0000
   2670 H          12.1259   45.8168    6.1381 H       324      M_A    0.0000
   2671 C          12.6587   46.5761    4.4577 C.3     325      M_A    0.0000
   2672 C          12.6220   47.7403    5.1342 C.2     325      M_A    0.0000
   2673 H          13.5318   46.4467    4.0695 H       325      M_A    0.0000
   2674 H          12.0310   46.5988    3.7262 H       325      M_A    0.0000
   2675 H          11.7489   47.8697    5.5224 H       325      M_A    0.0000
   2676 H          13.2497   47.7175    5.8657 H       325      M_A    0.0000
   2677 C          27.5237   77.8124    4.5305 C.2     326      M_A    0.0000
   2678 C          26.5603   76.8809    5.2744 C.3     326      M_A    0.0000
   2679 H          28.0203   77.2685    3.7175 H       326      M_A    0.0000
   2680 H          28.3145   78.1554    5.2092 H       326      M_A    0.0000
   2681 H          26.8256   75.8340    5.0819 H       326      M_A    0.0000
   2682 H          26.6492   77.0346    6.3570 H       326      M_A    0.0000
   2683 C          25.0680   77.1098    4.8524 C.3     327      M_A    0.0000
   2684 C          24.4186   75.8361    4.3004 C.3     327      M_A    0.0000
   2685 H          24.5061   77.4719    5.7223 H       327      M_A    0.0000
   2686 H          25.0317   77.9072    4.0998 H       327      M_A    0.0000
   2687 H          24.2997   75.0966    5.1020 H       327      M_A    0.0000
   2688 H          23.4119   76.0591    3.9257 H       327      M_A    0.0000
   2689 C          25.2582   75.1951    3.1421 C.3     328      M_A    0.0000
   2690 C          25.0979   73.6720    3.0826 C.3     328      M_A    0.0000
   2691 H          24.9476   75.6435    2.1902 H       328      M_A    0.0000
   2692 H          26.3141   75.4569    3.2840 H       328      M_A    0.0000
   2693 H          24.1798   73.3698    3.6015 H       328      M_A    0.0000
   2694 H          24.9929   73.3452    2.0406 H       328      M_A    0.0000
   2695 C          26.3134   72.9210    3.7276 C.3     329      M_A    0.0000
   2696 C          27.1928   72.2312    2.6790 C.3     329      M_A    0.0000
   2697 H          26.9087   73.6407    4.3032 H       329      M_A    0.0000
   2698 H          25.9329   72.1825    4.4442 H       329      M_A    0.0000
   2699 H          26.6334   71.4231    2.1916 H       329      M_A    0.0000
   2700 H          27.4679   72.9435    1.8913 H       329      M_A    0.0000
   2701 C          28.5026   71.6352    3.3010 C.3     330      M_A    0.0000
   2702 C          29.7388   72.4785    2.9699 C.3     330      M_A    0.0000
   2703 H          28.3765   71.5632    4.3885 H       330      M_A    0.0000
   2704 H          28.6356   70.6111    2.9308 H       330      M_A    0.0000
   2705 H          30.2641   72.0530    2.1059 H       330      M_A    0.0000
   2706 H          29.4363   73.4941    2.6858 H       330      M_A    0.0000
   2707 C          30.7375   72.5674    4.1750 C.3     331      M_A    0.0000
   2708 C          32.0756   71.8842    3.8720 C.3     331      M_A    0.0000
   2709 H          30.9017   73.6238    4.4210 H       331      M_A    0.0000
   2710 H          30.2713   72.1077    5.0553 H       331      M_A    0.0000
   2711 H          31.9093   70.9801    3.2732 H       331      M_A    0.0000
   2712 H          32.7092   72.5480    3.2708 H       331      M_A    0.0000
   2713 C          32.8507   71.4908    5.1766 C.3     332      M_A    0.0000
   2714 C          34.0944   70.6454    4.8807 C.3     332      M_A    0.0000
   2715 H          33.1364   72.4070    5.7080 H       332      M_A    0.0000
   2716 H          32.1711   70.9410    5.8394 H       332      M_A    0.0000
   2717 H          33.8036   69.7058    4.3948 H       332      M_A    0.0000
   2718 H          34.7499   71.1739    4.1775 H       332      M_A    0.0000
   2719 C          34.9088   70.3125    6.1781 C.3     333      M_A    0.0000
   2720 C          35.2230   68.8172    6.2990 C.3     333      M_A    0.0000
   2721 H          35.8397   70.8930    6.1700 H       333      M_A    0.0000
   2722 H          34.3358   70.6483    7.0513 H       333      M_A    0.0000
   2723 H          34.3277   68.2252    6.0721 H       333      M_A    0.0000
   2724 H          35.9843   68.5320    5.5624 H       333      M_A    0.0000
   2725 C          35.7346   68.4314    7.7297 C.3     334      M_A    0.0000
   2726 C          37.1324   67.8038    7.6971 C.3     334      M_A    0.0000
   2727 H          35.7407   69.3311    8.3576 H       334      M_A    0.0000
   2728 H          35.0199   67.7346    8.1848 H       334      M_A    0.0000
   2729 H          37.0569   66.7271    7.5010 H       334      M_A    0.0000
   2730 H          37.7185   68.2334    6.8752 H       334      M_A    0.0000
   2731 C          37.9119   68.0193    9.0400 C.3     335      M_A    0.0000
   2732 C          39.3760   67.5773    8.9392 C.3     335      M_A    0.0000
   2733 H          37.8573   69.0802    9.3143 H       335      M_A    0.0000
   2734 H          37.4046   67.4614    9.8368 H       335      M_A    0.0000
   2735 H          39.4746   66.5293    9.2481 H       335      M_A    0.0000
   2736 H          39.7144   67.6317    7.8971 H       335      M_A    0.0000
   2737 C          40.3244   68.4566    9.8251 C.3     336      M_A    0.0000
   2738 C          41.3639   67.6159   10.5746 C.3     336      M_A    0.0000
   2739 H          40.8266   69.1915    9.1837 H       336      M_A    0.0000
   2740 H          39.7152   69.0253   10.5385 H       336      M_A    0.0000
   2741 H          40.9023   67.1376   11.4474 H       336      M_A    0.0000
   2742 H          41.7301   66.8077    9.9294 H       336      M_A    0.0000
   2743 C          42.5860   68.4721   11.0550 C.3     337      M_A    0.0000
   2744 C          42.7258   68.4797   12.5812 C.3     337      M_A    0.0000
   2745 H          43.4991   68.0739   10.5955 H       337      M_A    0.0000
   2746 H          42.4675   69.4974   10.6830 H       337      M_A    0.0000
   2747 H          43.1292   67.8028   12.8502 H       337      M_A    0.0000
   2748 H          43.2435   69.1235   12.6848 H       337      M_A    0.0000
   2749 C          41.7638   68.6481   13.2605 C.3     338      M_A    0.0000
   2750 C          41.9783   68.4475   14.3860 C.3     338      M_A    0.0000
   2751 H          41.4947   69.4290   13.1559 H       338      M_A    0.0000
   2752 H          41.1549   68.1475   12.9923 H       338      M_A    0.0000
   2753 H          42.7928   68.3210   14.5033 H       338      M_A    0.0000
   2754 H          41.7723   69.1149   14.8392 H       338      M_A    0.0000
   2755 C          41.3805   67.5050   14.7980 C.3     339      M_A    0.0000
   2756 C          42.0889   66.6426   15.1259 C.3     339      M_A    0.0000
   2757 H          40.9083   67.7462   15.4398 H       339      M_A    0.0000
   2758 H          40.8602   67.2373   14.2057 H       339      M_A    0.0000
   2759 H          42.6208   66.4610   14.5117 H       339      M_A    0.0000
   2760 H          42.5487   66.8829   15.7771 H       339      M_A    0.0000
   2761 C          41.4923   65.6564   15.4207 C.3     340      M_A    0.0000
   2762 C          41.6237   65.3806   16.5431 C.3     340      M_A    0.0000
   2763 H          40.6858   65.7686   15.2469 H       340      M_A    0.0000
   2764 H          41.7556   65.0297   14.9400 H       340      M_A    0.0000
   2765 H          41.7380   64.5599   16.6238 H       340      M_A    0.0000
   2766 H          42.3050   65.7482   16.8495 H       340      M_A    0.0000
   2767 C          40.6856   65.7037   17.1996 C.3     341      M_A    0.0000
   2768 C          40.0008   64.8013   17.4638 C.3     341      M_A    0.0000
   2769 H          40.9586   66.0686   17.8964 H       341      M_A    0.0000
   2770 H          40.2516   66.2790   16.7826 H       341      M_A    0.0000
   2771 H          40.3006   64.1050   17.1197 H       341      M_A    0.0000
   2772 H          39.9960   64.6781   18.2873 H       341      M_A    0.0000
   2773 C          38.8815   64.9610   17.0934 C.3     342      M_A    0.0000
   2774 C          38.5244   64.1074   16.3887 C.3     342      M_A    0.0000
   2775 H          38.3831   65.0095   17.7586 H       342      M_A    0.0000
   2776 H          38.8304   65.6943   16.7024 H       342      M_A    0.0000
   2777 H          39.1732   63.7868   15.9770 H       342      M_A    0.0000
   2778 H          38.1949   63.4871   16.8358 H       342      M_A    0.0000
   2779 C          37.7168   64.4823   15.5996 C.3     343      M_A    0.0000
   2780 C          36.6946   63.9413   15.7240 C.3     343      M_A    0.0000
   2781 H          37.6173   65.3043   15.6874 H       343      M_A    0.0000
   2782 H          38.0140   64.3581   14.8319 H       343      M_A    0.0000
   2783 H          36.7362   63.1748   15.4017 H       343      M_A    0.0000
   2784 H          36.5157   63.8515   16.5322 H       343      M_A    0.0000
   2785 C          35.8054   64.5309   15.1976 C.3     344      M_A    0.0000
   2786 C          34.8475   63.8799   15.0902 C.3     344      M_A    0.0000
   2787 H          35.6373   65.2151   15.6413 H       344      M_A    0.0000
   2788 H          36.0609   64.7887   14.4483 H       344      M_A    0.0000
   2789 H          35.0436   63.0725   15.1440 H       344      M_A    0.0000
   2790 H          34.3217   64.0404   15.7154 H       344      M_A    0.0000
   2791 C          34.2863   64.0703   14.0586 C.3     345      M_A    0.0000
   2792 C          33.3045   63.4528   13.9704 C.3     345      M_A    0.0000
   2793 H          34.1194   64.8831   13.9900 H       345      M_A    0.0000
   2794 H          34.8015   63.8784   13.4334 H       345      M_A    0.0000
   2795 H          33.2378   63.1304   13.2056 H       345      M_A    0.0000
   2796 H          33.3227   62.8105   14.4998 H       345      M_A    0.0000
   2797 C          32.3377   64.1083   14.1959 C.3     346      M_A    0.0000
   2798 C          31.5573   64.0536   13.3351 C.3     346      M_A    0.0000
   2799 H          31.9957   63.8460   14.9083 H       346      M_A    0.0000
   2800 H          32.5716   64.8978   14.3195 H       346      M_A    0.0000
   2801 H          31.8838   64.3617   12.6338 H       346      M_A    0.0000
   2802 H          31.3601   63.2601   13.1785 H       346      M_A    0.0000
   2803 C          30.5618   64.6531   13.5902 C.3     347      M_A    0.0000
   2804 C          29.7321   64.4900   12.7915 C.3     347      M_A    0.0000
   2805 H          30.2884   64.4129   14.3390 H       347      M_A    0.0000
   2806 H          30.7444   65.4631   13.6508 H       347      M_A    0.0000
   2807 H          29.5966   63.6757   12.6828 H       347      M_A    0.0000
   2808 H          29.0139   64.8189   13.0546 H       347      M_A    0.0000
   2809 C          30.0145   64.9750   11.7424 C.3     348      M_A    0.0000
   2810 C          29.0865   65.4138   11.1955 C.3     348      M_A    0.0000
   2811 H          30.5814   65.5720   11.8667 H       348      M_A    0.0000
   2812 H          30.3779   64.3954   11.2679 H       348      M_A    0.0000
   2813 H          28.4919   64.8344   11.1325 H       348      M_A    0.0000
   2814 H          28.7637   66.0404   11.6388 H       348      M_A    0.0000
   2815 C          29.3514   65.8115   10.1060 C.3     349      M_A    0.0000
   2816 C          28.5765   65.4663    9.3102 C.2     349      M_A    0.0000
   2817 H          29.3894   66.6430   10.1257 H       349      M_A    0.0000
   2818 H          30.1118   65.5422    9.8996 H       349      M_A    0.0000
   2819 H          28.5386   64.6348    9.2905 H       349      M_A    0.0000
   2820 H          27.8162   65.7355    9.5166 H       349      M_A    0.0000
   2821 C          44.6577   58.1459   12.4413 C.2     350      M_A    0.0000
   2822 C          43.5257   57.2162   12.8924 C.3     350      M_A    0.0000
   2823 H          45.3526   57.6031   11.7887 H       350      M_A    0.0000
   2824 H          45.2379   58.4810   13.3100 H       350      M_A    0.0000
   2825 H          43.6490   56.9601   13.9520 H       350      M_A    0.0000
   2826 H          42.5598   57.7285   12.8024 H       350      M_A    0.0000
   2827 C          43.4752   55.8920   12.0550 C.3     351      M_A    0.0000
   2828 C          43.0597   54.6844   12.9023 C.3     351      M_A    0.0000
   2829 H          42.7735   56.0266   11.2224 H       351      M_A    0.0000
   2830 H          44.4625   55.7173   11.6097 H       351      M_A    0.0000
   2831 H          42.7132   54.1285   12.3772 H       351      M_A    0.0000
   2832 H          43.8359   54.4097   13.0664 H       351      M_A    0.0000
   2833 C          42.4299   54.6964   13.9233 C.3     352      M_A    0.0000
   2834 C          41.9525   53.6523   14.1634 C.3     352      M_A    0.0000
   2835 H          42.9355   54.9328   14.5504 H       352      M_A    0.0000
   2836 H          41.8298   55.2805   13.8642 H       352      M_A    0.0000
   2837 H          41.1930   53.5950   13.8104 H       352      M_A    0.0000
   2838 H          42.4197   53.0389   13.8312 H       352      M_A    0.0000
   2839 C          41.8460   53.4615   15.3430 C.3     353      M_A    0.0000
   2840 C          40.8107   53.8219   15.7599 C.3     353      M_A    0.0000
   2841 H          41.9481   52.6422   15.4949 H       353      M_A    0.0000
   2842 H          42.4701   53.8597   15.7389 H       353      M_A    0.0000
   2843 H          40.2289   53.2291   15.6374 H       353      M_A    0.0000
   2844 H          40.8606   53.9430   16.5891 H       353      M_A    0.0000
   2845 C          40.4412   54.8391   15.2421 C.3     354      M_A    0.0000
   2846 C          39.3869   55.1773   15.6290 C.3     354      M_A    0.0000
   2847 H          41.0086   55.4398   15.3906 H       354      M_A    0.0000
   2848 H          40.4205   54.7273   14.4104 H       354      M_A    0.0000
   2849 H          38.8356   54.5493   15.5483 H       354      M_A    0.0000
   2850 H          39.4257   55.3604   16.4473 H       354      M_A    0.0000
   2851 C          38.9714   56.1348   15.0377 C.3     355      M_A    0.0000
   2852 C          37.8219   56.0572   14.8178 C.3     355      M_A    0.0000
   2853 H          39.1320   56.8232   15.4906 H       355      M_A    0.0000
   2854 H          39.3972   56.2146   14.3186 H       355      M_A    0.0000
   2855 H          37.6808   55.4817   14.2231 H       355      M_A    0.0000
   2856 H          37.4142   55.7989   15.5048 H       355      M_A    0.0000
   2857 C          37.3554   57.1035   14.4619 C.3     356      M_A    0.0000
   2858 C          37.4232   57.2481   13.3000 C.3     356      M_A    0.0000
   2859 H          36.5543   57.1412   14.7104 H       356      M_A    0.0000
   2860 H          37.7589   57.7269   14.8536 H       356      M_A    0.0000
   2861 H          38.0132   56.7432   12.9810 H       356      M_A    0.0000
   2862 H          36.6974   57.0284   12.9397 H       356      M_A    0.0000
   2863 C          37.6781   58.3805   12.9968 C.3     357      M_A    0.0000
   2864 C          37.3719   58.6243   11.8912 C.3     357      M_A    0.0000
   2865 H          37.2819   58.8980   13.5260 H       357      M_A    0.0000
   2866 H          38.5007   58.5104   13.1031 H       357      M_A    0.0000
   2867 H          37.2960   57.9140   11.4502 H       357      M_A    0.0000
   2868 H          36.6206   58.9987   11.8764 H       357      M_A    0.0000
   2869 C          38.1691   59.3353   11.3450 C.3     358      M_A    0.0000
   2870 C          37.7208   60.3871   11.0836 C.3     358      M_A    0.0000
   2871 H          38.8390   59.4236   11.8432 H       358      M_A    0.0000
   2872 H          38.4368   58.9548   10.6461 H       358      M_A    0.0000
   2873 H          37.1049   60.5791   11.6208 H       358      M_A    0.0000
   2874 H          38.3090   60.9801   11.1693 H       358      M_A    0.0000
   2875 C          37.2869   60.4315    9.9661 C.3     359      M_A    0.0000
   2876 C          37.2279   61.5286    9.5554 C.3     359      M_A    0.0000
   2877 H          37.7742   59.9634    9.4678 H       359      M_A    0.0000
   2878 H          36.5248   60.0796    9.9575 H       359      M_A    0.0000
   2879 H          37.7415   62.0279    9.9932 H       359      M_A    0.0000
   2880 H          37.4905   61.5521    8.7583 H       359      M_A    0.0000
   2881 C          36.1158   61.9751    9.6094 C.3     360      M_A    0.0000
   2882 C          35.8006   62.2517   10.7047 C.3     360      M_A    0.0000
   2883 H          36.0725   62.6539    9.1173 H       360      M_A    0.0000
   2884 H          35.5820   61.4113    9.2900 H       360      M_A    0.0000
   2885 H          35.7277   61.5553   11.1679 H       360      M_A    0.0000
   2886 H          36.3962   62.7203   11.0661 H       360      M_A    0.0000
   2887 C          34.7619   62.8509   10.7414 C.3     361      M_A    0.0000
   2888 C          33.9017   62.2840   10.1808 C.2     361      M_A    0.0000
   2889 H          34.5494   62.9753   11.5440 H       361      M_A    0.0000
   2890 H          34.8755   63.6102   10.4016 H       361      M_A    0.0000
   2891 H          34.1142   62.1596    9.3782 H       361      M_A    0.0000
   2892 H          33.7882   61.5247   10.5206 H       361      M_A    0.0000
   2893 C          30.2208   77.0831   24.2267 C.2     362      M_A    0.0000
   2894 C          30.2471   75.7891   23.9332 C.3     362      M_A    0.0000
   2895 H          29.7512   77.2231   25.0406 H       362      M_A    0.0000
   2896 H          29.7491   77.5602   23.5541 H       362      M_A    0.0000
   2897 H          30.8538   75.6291   23.2199 H       362      M_A    0.0000
   2898 H          30.5647   75.2925   24.6781 H       362      M_A    0.0000
   2899 C          29.0241   75.3164   23.5816 C.3     363      M_A    0.0000
   2900 C          28.4899   76.0007   22.5777 C.3     363      M_A    0.0000
   2901 H          29.1066   74.4003   23.3439 H       363      M_A    0.0000
   2902 H          28.4528   75.3510   24.3398 H       363      M_A    0.0000
   2903 H          28.7154   76.9203   22.6540 H       363      M_A    0.0000
   2904 H          28.8483   75.6996   21.7511 H       363      M_A    0.0000
   2905 C          27.1381   75.8836   22.5371 C.3     364      M_A    0.0000
   2906 C          26.6027   76.5783   21.5410 C.3     364      M_A    0.0000
   2907 H          26.9128   74.9647   22.4513 H       364      M_A    0.0000
   2908 H          26.7803   76.1758   23.3672 H       364      M_A    0.0000
   2909 H          25.8171   77.0218   21.8385 H       364      M_A    0.0000
   2910 H          27.2056   77.2542   21.2544 H       364      M_A    0.0000
   2911 C          26.2870   75.7945   20.4786 C.3     365      M_A    0.0000
   2912 C          26.2099   76.4863   19.3485 C.3     365      M_A    0.0000
   2913 H          26.9410   75.1103   20.3977 H       365      M_A    0.0000
   2914 H          25.4594   75.3617   20.6526 H       365      M_A    0.0000
   2915 H          25.3324   76.8332   19.2382 H       365      M_A    0.0000
   2916 H          26.7961   77.2330   19.3830 H       365      M_A    0.0000
   2917 C          26.5228   75.7342   18.2626 C.3     366      M_A    0.0000
   2918 C          26.2555   76.3602   17.1233 C.3     366      M_A    0.0000
   2919 H          27.4448   75.5085   18.3018 H       366      M_A    0.0000
   2920 H          26.0399   74.9172   18.3065 H       366      M_A    0.0000
   2921 H          25.3158   76.4316   17.0035 H       366      M_A    0.0000
   2922 H          26.5951   77.2469   17.1514 H       366      M_A    0.0000
   2923 C          26.7864   75.7223   16.0490 C.3     367      M_A    0.0000
   2924 C          25.9637   74.8083   15.5496 C.3     367      M_A    0.0000
   2925 H          26.9991   76.3669   15.3844 H       367      M_A    0.0000
   2926 H          27.6055   75.3166   16.3077 H       367      M_A    0.0000
   2927 H          25.3192   74.5592   16.2016 H       367      M_A    0.0000
   2928 H          25.4826   75.1699   14.8146 H       367      M_A    0.0000
   2929 C          26.6214   73.6948   15.1368 C.3     368      M_A    0.0000
   2930 C          26.6998   73.6183   13.8142 C.3     368      M_A    0.0000
   2931 H          27.4928   73.6959   15.5153 H       368      M_A    0.0000
   2932 H          26.1752   72.9302   15.4815 H       368      M_A    0.0000
   2933 H          26.6519   72.7109   13.5370 H       368      M_A    0.0000
   2934 H          25.9605   74.0640   13.4177 H       368      M_A    0.0000
   2935 C          27.8472   74.1623   13.3345 C.3     369      M_A    0.0000
   2936 C          28.3614   73.4536   12.3371 C.3     369      M_A    0.0000
   2937 H          27.6680   75.0493   13.0453 H       369      M_A    0.0000
   2938 H          28.4749   74.2285   14.0445 H       369      M_A    0.0000
   2939 H          28.2447   72.5255   12.5030 H       369      M_A    0.0000
   2940 H          27.9004   73.6463   11.5291 H       369      M_A    0.0000
   2941 C          29.6835   73.7031   12.1568 C.3     370      M_A    0.0000
   2942 C          29.9250   74.3344   11.0146 C.3     370      M_A    0.0000
   2943 H          30.0000   74.2202   12.8881 H       370      M_A    0.0000
   2944 H          30.1564   72.8795   12.1800 H       370      M_A    0.0000
   2945 H          30.8298   74.6226   10.9867 H       370      M_A    0.0000
   2946 H          29.8050   73.7409   10.2826 H       370      M_A    0.0000
   2947 C          29.1173   75.4116   10.8415 C.3     371      M_A    0.0000
   2948 C          29.6522   76.3163   10.0310 C.3     371      M_A    0.0000
   2949 H          28.2834   75.1165   10.4950 H       371      M_A    0.0000
   2950 H          28.9382   75.7996   11.6899 H       371      M_A    0.0000
   2951 H          30.4087   76.7163   10.4435 H       371      M_A    0.0000
   2952 H          29.9636   75.8985    9.2367 H       371      M_A    0.0000
   2953 C          28.7700   77.2919    9.6953 C.3     372      M_A    0.0000
   2954 C          29.2279   78.5043    9.9815 C.2     372      M_A    0.0000
   2955 H          28.5796   77.2264    8.7669 H       372      M_A    0.0000
   2956 H          27.9523   77.1361   10.1532 H       372      M_A    0.0000
   2957 H          29.4183   78.5698   10.9099 H       372      M_A    0.0000
   2958 H          30.0456   78.6601    9.5237 H       372      M_A    0.0000
   2959 C          41.6640   90.9157   27.3766 C.2     373      M_A    0.0000
   2960 C          41.8831   89.8013   26.8635 C.3     373      M_A    0.0000
   2961 H          40.8025   90.9870   27.5967 H       373      M_A    0.0000
   2962 H          41.8318   91.5627   26.7858 H       373      M_A    0.0000
   2963 H          42.4730   89.3484   27.3561 H       373      M_A    0.0000
   2964 H          41.1339   89.3173   26.8519 H       373      M_A    0.0000
   2965 C          42.3289   89.8967   25.6732 C.3     374      M_A    0.0000
   2966 C          41.9116   88.9813   24.9377 C.3     374      M_A    0.0000
   2967 H          42.0913   90.6893   25.3398 H       374      M_A    0.0000
   2968 H          43.2206   89.8864   25.6984 H       374      M_A    0.0000
   2969 H          41.6343   88.2933   25.4331 H       374      M_A    0.0000
   2970 H          41.2052   89.2620   24.4709 H       374      M_A    0.0000
   2971 C          42.8036   88.5696   24.1255 C.3     375      M_A    0.0000
   2972 C          42.6770   87.3588   23.8589 C.3     375      M_A    0.0000
   2973 H          42.7572   89.0539   23.3778 H       375      M_A    0.0000
   2974 H          43.6078   88.7223   24.4800 H       375      M_A    0.0000
   2975 H          41.8477   87.1932   23.5752 H       375      M_A    0.0000
   2976 H          43.2255   87.1333   23.1926 H       375      M_A    0.0000
   2977 C          42.9237   86.6145   24.8639 C.3     376      M_A    0.0000
   2978 C          42.7468   85.4069   24.6121 C.3     376      M_A    0.0000
   2979 H          43.7657   86.7526   25.1241 H       376      M_A    0.0000
   2980 H          42.4016   86.8652   25.5424 H       376      M_A    0.0000
   2981 H          42.2157   85.3174   23.9010 H       376      M_A    0.0000
   2982 H          43.5233   85.0213   24.4020 H       376      M_A    0.0000
   2983 C          42.2288   84.7796   25.5933 C.3     377      M_A    0.0000
   2984 C          42.2325   83.5455   25.4199 C.3     377      M_A    0.0000
   2985 H          42.6784   84.9855   26.3358 H       377      M_A    0.0000
   2986 H          41.3934   85.0694   25.7111 H       377      M_A    0.0000
   2987 H          41.4734   83.2895   25.0276 H       377      M_A    0.0000
   2988 H          42.8955   83.3160   24.8690 H       377      M_A    0.0000
   2989 C          42.3665   82.9044   26.5134 C.3     378      M_A    0.0000
   2990 C          41.4515   82.0771   26.6910 C.3     378      M_A    0.0000
   2991 H          43.1566   82.4903   26.5090 H       378      M_A    0.0000
   2992 H          42.3867   83.4876   27.1880 H       378      M_A    0.0000
   2993 H          41.5047   81.4268   26.0827 H       378      M_A    0.0000
   2994 H          41.5406   81.6891   27.4893 H       378      M_A    0.0000
   2995 C          40.2965   82.6118   26.6208 C.3     379      M_A    0.0000
   2996 C          39.4230   81.9251   27.1852 C.3     379      M_A    0.0000
   2997 H          40.3326   83.4235   26.9890 H       379      M_A    0.0000
   2998 H          40.0857   82.7292   25.7620 H       379      M_A    0.0000
   2999 H          39.1282   81.2904   26.6321 H       379      M_A    0.0000
   3000 H          39.7718   81.5072   27.8920 H       379      M_A    0.0000
   3001 C          38.4313   82.6269   27.5711 C.3     380      M_A    0.0000
   3002 C          37.4433   81.9267   27.8653 C.3     380      M_A    0.0000
   3003 H          38.6809   83.1148   28.2749 H       380      M_A    0.0000
   3004 H          38.2169   83.2019   26.9238 H       380      M_A    0.0000
   3005 H          36.8207   82.4275   28.2621 H       380      M_A    0.0000
   3006 H          37.0719   81.5953   27.1250 H       380      M_A    0.0000
   3007 C          37.7486   80.9612   28.6394 C.3     381      M_A    0.0000
   3008 C          36.7723   80.5602   29.3021 C.3     381      M_A    0.0000
   3009 H          38.0806   80.2937   28.1494 H       381      M_A    0.0000
   3010 H          38.4014   81.2266   29.1864 H       381      M_A    0.0000
   3011 H          36.8649   79.6929   29.4889 H       381      M_A    0.0000
   3012 H          36.7367   80.9883   30.0839 H       381      M_A    0.0000
   3013 C          35.6684   80.7327   28.6886 C.3     382      M_A    0.0000
   3014 C          34.7404   80.0694   29.1905 C.3     382      M_A    0.0000
   3015 H          35.4651   81.6012   28.7012 H       382      M_A    0.0000
   3016 H          35.7771   80.5075   27.8323 H       382      M_A    0.0000
   3017 H          35.0719   79.3978   29.6751 H       382      M_A    0.0000
   3018 H          34.2673   80.5792   29.7491 H       382      M_A    0.0000
   3019 C          33.9561   79.5906   28.3071 C.3     383      M_A    0.0000
   3020 C          32.7876   79.4763   28.7250 C.2     383      M_A    0.0000
   3021 H          33.9739   80.1201   27.5895 H       383      M_A    0.0000
   3022 H          34.2670   78.7960   28.0469 H       383      M_A    0.0000
   3023 H          32.7698   78.9468   29.4426 H       383      M_A    0.0000
   3024 H          32.4767   80.2709   28.9852 H       383      M_A    0.0000
   3025 C          16.3842   73.1345   37.7014 C.2     384      M_A    0.0000
   3026 C          16.0855   71.9254   38.5947 C.3     384      M_A    0.0000
   3027 H          16.1462   72.8984   36.6568 H       384      M_A    0.0000
   3028 H          17.4548   73.3716   37.7348 H       384      M_A    0.0000
   3029 H          15.6747   72.4920   39.7535 H       384      M_A    0.0000
   3030 H          15.0608   71.1594   38.1518 H       384      M_A    0.0000
   3031 C          17.6036   70.7840   38.9624 C.3     385      M_A    0.0000
   3032 C          18.1385   69.7914   37.4439 C.3     385      M_A    0.0000
   3033 H          18.6297   71.5505   39.4010 H       385      M_A    0.0000
   3034 H          17.2837   69.9455   39.9760 H       385      M_A    0.0000
   3035 H          17.5172   68.5886   37.4330 H       385      M_A    0.0000
   3036 H          17.7619   70.4337   36.3131 H       385      M_A    0.0000
   3037 C          20.0511   69.5058   37.3912 C.3     386      M_A    0.0000
   3038 C          20.6027   68.6369   35.8043 C.3     386      M_A    0.0000
   3039 H          20.6743   70.7021   37.5060 H       386      M_A    0.0000
   3040 H          20.4129   68.7737   38.4710 H       386      M_A    0.0000
   3041 H          19.9779   67.4415   35.6884 H       386      M_A    0.0000
   3042 H          20.2427   69.3700   34.7245 H       386      M_A    0.0000
   3043 C          22.5149   68.3487   35.7529 C.3     387      M_A    0.0000
   3044 C          23.1706   68.2031   33.9848 C.3     387      M_A    0.0000
   3045 H          23.1279   69.3725   36.3925 H       387      M_A    0.0000
   3046 H          22.8058   67.2251   36.4499 H       387      M_A    0.0000
   3047 H          22.7902   67.0215   33.4445 H       387      M_A    0.0000
   3048 H          22.6353   69.1753   33.2096 H       387      M_A    0.0000
   3049 C          25.0992   68.3330   33.9051 C.3     388      M_A    0.0000
   3050 C          25.8038   67.5749   32.3220 C.3     388      M_A    0.0000
   3051 H          25.4526   69.6369   33.9925 H       388      M_A    0.0000
   3052 H          25.6234   67.7145   34.9892 H       388      M_A    0.0000
   3053 H          25.2171   66.3793   32.0788 H       388      M_A    0.0000
   3054 H          25.5225   68.3687   31.2620 H       388      M_A    0.0000
   3055 C          27.7191   67.3211   32.4201 C.3     389      M_A    0.0000
   3056 C          28.3577   66.1562   31.0739 C.3     389      M_A    0.0000
   3057 H          28.3250   68.5273   32.3160 H       389      M_A    0.0000
   3058 H          28.0325   66.8329   33.6434 H       389      M_A    0.0000
   3059 H          28.4877   64.9025   31.5682 H       389      M_A    0.0000
   3060 H          27.4632   66.0835   30.0602 H       389      M_A    0.0000
   3061 C          30.0635   66.7252   30.3606 C.3     390      M_A    0.0000
   3062 C          30.6825   65.5834   28.9857 C.3     390      M_A    0.0000
   3063 H          29.9412   67.9901   29.8937 H       390      M_A    0.0000
   3064 H          30.9656   66.7686   31.3692 H       390      M_A    0.0000
   3065 H          30.7954   64.3167   29.4499 H       390      M_A    0.0000
   3066 H          29.7849   65.5477   27.9728 H       390      M_A    0.0000
   3067 C          32.3949   66.1445   28.2820 C.3     391      M_A    0.0000
   3068 C          32.5570   65.7979   26.4297 C.3     391      M_A    0.0000
   3069 H          32.5531   67.4674   28.5223 H       391      M_A    0.0000
   3070 H          33.3763   65.5058   28.9614 H       391      M_A    0.0000
   3071 H          33.8324   65.4555   26.1314 H       391      M_A    0.0000
   3072 H          31.7806   64.7438   26.0849 H       391      M_A    0.0000
   3073 C          32.0525   67.3229   25.3515 C.3     392      M_A    0.0000
   3074 C          32.7616   67.2290   23.6007 C.3     392      M_A    0.0000
   3075 H          30.7014   67.3944   25.3020 H       392      M_A    0.0000
   3076 H          32.4793   68.4516   25.9653 H       392      M_A    0.0000
   3077 H          32.2859   66.1322   22.9654 H       392      M_A    0.0000
   3078 H          32.3594   68.3014   22.8788 H       392      M_A    0.0000
   3079 C          34.6950   67.1632   23.5952 C.3     393      M_A    0.0000
   3080 C          35.4640   68.7434   22.8960 C.3     393      M_A    0.0000
   3081 H          35.1281   66.9570   24.8612 H       393      M_A    0.0000
   3082 H          35.0931   66.0924   22.8688 H       393      M_A    0.0000
   3083 H          36.4974   68.4341   22.0779 H       393      M_A    0.0000
   3084 H          34.5563   69.4071   22.1419 H       393      M_A    0.0000
   3085 C          36.1026   69.9259   24.2875 C.3     394      M_A    0.0000
   3086 C          34.7565   71.1049   24.8999 C.3     394      M_A    0.0000
   3087 H          36.5679   69.1784   25.3159 H       394      M_A    0.0000
   3088 H          37.1558   70.6309   23.8116 H       394      M_A    0.0000
   3089 H          34.5741   72.1055   24.0064 H       394      M_A    0.0000
   3090 H          33.5753   70.4505   24.9972 H       394      M_A    0.0000
   3091 C          35.1854   71.8767   26.6212 C.3     395      M_A    0.0000
   3092 C          33.6970   71.8980   27.7881 C.3     395      M_A    0.0000
   3093 H          36.1995   71.1713   27.1752 H       395      M_A    0.0000
   3094 H          35.6453   73.1359   26.4325 H       395      M_A    0.0000
   3095 H          33.6901   73.0427   28.5108 H       395      M_A    0.0000
   3096 H          32.5470   71.8821   27.0740 H       395      M_A    0.0000
   3097 C          33.6969   70.3931   29.0038 C.3     396      M_A    0.0000
   3098 C          34.0003   70.9188   30.7952 C.3     396      M_A    0.0000
   3099 H          32.5093   69.7510   28.9032 H       396      M_A    0.0000
   3100 H          34.6486   69.5143   28.6104 H       396      M_A    0.0000
   3101 H          34.8558   70.0566   31.3933 H       396      M_A    0.0000
   3102 H          34.5899   72.1370   30.8279 H       396      M_A    0.0000
   3103 C          32.3646   70.9897   31.8255 C.3     397      M_A    0.0000
   3104 C          31.8323   72.7648   32.2040 C.3     397      M_A    0.0000
   3105 H          31.3889   70.3487   31.1399 H       397      M_A    0.0000
   3106 H          32.5449   70.3033   32.9784 H       397      M_A    0.0000
   3107 H          32.0810   73.0571   33.5023 H       397      M_A    0.0000
   3108 H          32.5584   73.6350   31.4636 H       397      M_A    0.0000
   3109 C          29.9538   73.0588   31.8474 C.3     398      M_A    0.0000
   3110 C          29.6751   74.3288   30.4739 C.2     398      M_A    0.0000
   3111 H          29.3836   71.8780   31.5105 H       398      M_A    0.0000
   3112 H          29.3521   73.4695   32.9885 H       398      M_A    0.0000
   3113 H          30.2453   75.5096   30.8108 H       398      M_A    0.0000
   3114 H          30.2768   73.9181   29.3328 H       398      M_A    0.0000
   3115 C          11.9989   76.6626   19.6757 C.2     399      M_A    0.0000
   3116 C          10.6184   75.9969   19.6740 C.3     399      M_A    0.0000
   3117 H          12.7658   75.9376   19.9754 H       399      M_A    0.0000
   3118 H          12.0250   77.4726   20.4151 H       399      M_A    0.0000
   3119 H           9.8360   76.7529   19.8149 H       399      M_A    0.0000
   3120 H          10.4294   75.5253   18.7017 H       399      M_A    0.0000
   3121 C          10.4807   74.9119   20.7971 C.3     400      M_A    0.0000
   3122 C          11.3644   75.2175   22.0115 C.3     400      M_A    0.0000
   3123 H           9.4289   74.8512   21.1030 H       400      M_A    0.0000
   3124 H          10.7437   73.9331   20.3773 H       400      M_A    0.0000
   3125 H          12.1687   75.9073   21.7273 H       400      M_A    0.0000
   3126 H          10.7758   75.7225   22.7875 H       400      M_A    0.0000
   3127 C          12.0018   73.9226   22.6233 C.3     401      M_A    0.0000
   3128 C          13.4315   74.1591   23.1225 C.3     401      M_A    0.0000
   3129 H          11.3686   73.5724   23.4479 H       401      M_A    0.0000
   3130 H          11.9948   73.1318   21.8630 H       401      M_A    0.0000
   3131 H          14.0204   74.6682   22.3496 H       401      M_A    0.0000
   3132 H          13.4199   74.8214   23.9970 H       401      M_A    0.0000
   3133 C          14.1540   72.8230   23.5102 C.3     402      M_A    0.0000
   3134 C          15.6052   72.9653   24.0518 C.3     402      M_A    0.0000
   3135 H          13.5198   72.2890   24.2533 H       402      M_A    0.0000
   3136 H          14.1510   72.2047   22.5843 H       402      M_A    0.0000
   3137 H          15.7569   73.9843   24.4739 H       402      M_A    0.0000
   3138 H          15.7740   72.2459   24.8847 H       402      M_A    0.0000
   3139 C          16.6976   72.7094   22.9238 C.3     403      M_A    0.0000
   3140 C          17.9268   73.6514   23.0693 C.3     403      M_A    0.0000
   3141 H          17.0234   71.6460   22.9744 H       403      M_A    0.0000
   3142 H          16.2236   72.8516   21.9264 H       403      M_A    0.0000
   3143 H          17.5895   74.6854   23.3072 H       403      M_A    0.0000
   3144 H          18.5638   73.3192   23.9199 H       403      M_A    0.0000
   3145 C          18.8144   73.6925   21.7495 C.3     404      M_A    0.0000
   3146 C          20.3254   73.4753   22.0482 C.3     404      M_A    0.0000
   3147 H          18.4481   72.9110   21.0462 H       404      M_A    0.0000
   3148 H          18.6621   74.6733   21.2451 H       404      M_A    0.0000
   3149 H          20.6193   74.0414   22.9608 H       404      M_A    0.0000
   3150 H          20.5216   72.4004   22.2618 H       404      M_A    0.0000
   3151 C          21.2513   73.9353   20.8390 C.3     405      M_A    0.0000
   3152 C          22.4296   72.9507   20.5912 C.3     405      M_A    0.0000
   3153 H          20.6266   74.0218   19.9214 H       405      M_A    0.0000
   3154 H          21.6443   74.9543   21.0554 H       405      M_A    0.0000
   3155 H          22.7195   72.4545   21.5448 H       405      M_A    0.0000
   3156 H          22.1119   72.1428   19.8940 H       405      M_A    0.0000
   3157 C          23.7067   73.6795   19.9835 C.3     406      M_A    0.0000
   3158 C          23.8264   73.4749   18.4462 C.3     406      M_A    0.0000
   3159 H          23.6466   74.7657   20.2205 H       406      M_A    0.0000
   3160 H          24.6176   73.2911   20.4924 H       406      M_A    0.0000
   3161 H          24.5747   72.6810   18.2239 H       406      M_A    0.0000
   3162 H          22.8548   73.1238   18.0310 H       406      M_A    0.0000
   3163 C          24.2544   74.8087   17.6920 C.3     407      M_A    0.0000
   3164 C          23.0831   75.4260   16.8756 C.3     407      M_A    0.0000
   3165 H          24.6247   75.5425   18.4429 H       407      M_A    0.0000
   3166 H          25.1109   74.5808   17.0181 H       407      M_A    0.0000
   3167 H          22.7498   74.7135   16.0876 H       407      M_A    0.0000
   3168 H          22.2064   75.6019   17.5390 H       407      M_A    0.0000
   3169 C          23.4880   76.8011   16.1856 C.3     408      M_A    0.0000
   3170 C          22.6054   77.9865   16.6707 C.3     408      M_A    0.0000
   3171 H          24.5600   77.0095   16.4026 H       408      M_A    0.0000
   3172 H          23.4016   76.6877   15.0814 H       408      M_A    0.0000
   3173 H          21.6002   77.9338   16.1948 H       408      M_A    0.0000
   3174 H          22.4428   77.9165   17.7699 H       408      M_A    0.0000
   3175 C          23.2570   79.3992   16.3376 C.3     409      M_A    0.0000
   3176 C          22.1859   80.4861   16.0364 C.3     409      M_A    0.0000
   3177 H          23.8895   79.7145   17.1979 H       409      M_A    0.0000
   3178 H          23.9389   79.2831   15.4651 H       409      M_A    0.0000
   3179 H          21.4213   80.0844   15.3338 H       409      M_A    0.0000
   3180 H          21.6476   80.7611   16.9715 H       409      M_A    0.0000
   3181 C          22.8218   81.8008   15.4053 C.3     410      M_A    0.0000
   3182 C          21.9131   82.4277   14.3095 C.3     410      M_A    0.0000
   3183 H          23.0025   82.5385   16.2194 H       410      M_A    0.0000
   3184 H          23.8176   81.5475   14.9765 H       410      M_A    0.0000
   3185 H          21.6107   81.6493   13.5731 H       410      M_A    0.0000
   3186 H          20.9755   82.8161   14.7674 H       410      M_A    0.0000
   3187 C          22.6350   83.6145   13.5340 C.3     411      M_A    0.0000
   3188 C          22.8027   83.3118   12.0175 C.3     411      M_A    0.0000
   3189 H          22.0430   84.5471   13.6740 H       411      M_A    0.0000
   3190 H          23.6301   83.7946   13.9997 H       411      M_A    0.0000
   3191 H          22.8501   82.2120   11.8507 H       411      M_A    0.0000
   3192 H          21.9170   83.6828   11.4540 H       411      M_A    0.0000
   3193 C          24.1131   83.9794   11.4107 C.3     412      M_A    0.0000
   3194 C          23.7873   84.9933   10.2770 C.3     412      M_A    0.0000
   3195 H          24.6688   84.4886   12.2302 H       412      M_A    0.0000
   3196 H          24.7794   83.1755   11.0241 H       412      M_A    0.0000
   3197 H          22.7729   84.7920    9.8647 H       412      M_A    0.0000
   3198 H          23.7667   86.0290   10.6853 H       412      M_A    0.0000
   3199 C          24.8449   84.9310    9.0901 C.3     413      M_A    0.0000
   3200 C          24.1648   84.9721    7.6918 C.3     413      M_A    0.0000
   3201 H          25.5531   85.7836    9.1953 H       413      M_A    0.0000
   3202 H          25.4471   84.0004    9.1945 H       413      M_A    0.0000
   3203 H          23.0965   84.6706    7.7779 H       413      M_A    0.0000
   3204 H          24.1725   86.0119    7.2939 H       413      M_A    0.0000
   3205 C          24.8844   84.0164    6.6430 C.3     414      M_A    0.0000
   3206 C          23.8978   83.0040    5.9943 C.3     414      M_A    0.0000
   3207 H          25.3616   84.6425    5.8556 H       414      M_A    0.0000
   3208 H          25.7063   83.4711    7.1595 H       414      M_A    0.0000
   3209 H          22.9760   83.5307    5.6588 H       414      M_A    0.0000
   3210 H          24.3565   82.5524    5.0859 H       414      M_A    0.0000
   3211 C          23.4864   81.8375    6.9949 C.3     415      M_A    0.0000
   3212 C          23.4972   80.4414    6.3091 C.2     415      M_A    0.0000
   3213 H          24.1870   81.8432    7.8602 H       415      M_A    0.0000
   3214 H          22.4733   82.0548    7.4023 H       415      M_A    0.0000
   3215 H          22.7966   80.4357    5.4438 H       415      M_A    0.0000
   3216 H          24.5103   80.2241    5.9017 H       415      M_A    0.0000
   3217 C          14.6519   59.0452   35.6041 C.2     416      M_A    0.0000
   3218 C          13.6996   58.1130   34.8471 C.3     416      M_A    0.0000
   3219 H          14.0966   59.8974   36.0151 H       416      M_A    0.0000
   3220 H          15.3995   59.4587   34.9159 H       416      M_A    0.0000
   3221 H          14.0534   57.1254   34.9643 H       416      M_A    0.0000
   3222 H          12.8181   58.1895   35.4228 H       416      M_A    0.0000
   3223 C          13.3535   58.3366   33.3961 C.3     417      M_A    0.0000
   3224 C          13.6959   59.6976   32.9432 C.3     417      M_A    0.0000
   3225 H          13.8633   57.6213   32.8107 H       417      M_A    0.0000
   3226 H          12.3218   58.1590   33.2612 H       417      M_A    0.0000
   3227 H          12.8428   60.3179   32.9841 H       417      M_A    0.0000
   3228 H          14.4125   60.1247   33.5899 H       417      M_A    0.0000
   3229 C          14.2405   59.7119   31.5367 C.3     418      M_A    0.0000
   3230 C          15.1681   60.8353   31.3079 C.3     418      M_A    0.0000
   3231 H          14.7299   58.7951   31.3520 H       418      M_A    0.0000
   3232 H          13.4325   59.7660   30.8595 H       418      M_A    0.0000
   3233 H          14.6366   61.7472   31.2980 H       418      M_A    0.0000
   3234 H          15.8629   60.8980   32.1001 H       418      M_A    0.0000
   3235 C          15.9227   60.6981   30.0091 C.3     419      M_A    0.0000
   3236 C          17.2242   61.3907   30.0431 C.3     419      M_A    0.0000
   3237 H          16.0638   59.6723   29.8043 H       419      M_A    0.0000
   3238 H          15.3276   61.0842   29.2275 H       419      M_A    0.0000
   3239 H          17.0909   62.3979   30.3296 H       419      M_A    0.0000
   3240 H          17.8502   60.9493   30.7694 H       419      M_A    0.0000
   3241 C          17.9264   61.3537   28.7087 C.3     420      M_A    0.0000
   3242 C          19.2297   62.0429   28.7437 C.3     420      M_A    0.0000
   3243 H          18.0572   60.3466   28.4208 H       420      M_A    0.0000
   3244 H          17.3016   61.7977   27.9830 H       420      M_A    0.0000
   3245 H          19.0910   63.0696   28.9459 H       420      M_A    0.0000
   3246 H          19.8223   61.6570   29.5275 H       420      M_A    0.0000
   3247 C          19.9866   61.9007   27.4468 C.3     421      M_A    0.0000
   3248 C          19.9927   63.1501   26.6634 C.3     421      M_A    0.0000
   3249 H          20.9764   61.6031   27.6613 H       421      M_A    0.0000
   3250 H          19.5515   61.1218   26.8826 H       421      M_A    0.0000
   3251 H          19.9946   63.9835   27.3112 H       421      M_A    0.0000
   3252 H          20.8752   63.2118   26.0875 H       421      M_A    0.0000
   3253 C          18.8028   63.2530   25.7422 C.3     422      M_A    0.0000
   3254 C          18.6964   64.5825   25.1131 C.3     422      M_A    0.0000
   3255 H          18.8816   62.5066   24.9999 H       422      M_A    0.0000
   3256 H          17.9272   63.0418   26.2926 H       422      M_A    0.0000
   3257 H          18.0717   64.5320   24.2637 H       422      M_A    0.0000
   3258 H          18.2452   65.2639   25.7811 H       422      M_A    0.0000
   3259 C          20.0399   65.1271   24.6967 C.3     423      M_A    0.0000
   3260 C          20.1231   66.5909   24.8550 C.3     423      M_A    0.0000
   3261 H          20.7904   64.6577   25.2718 H       423      M_A    0.0000
   3262 H          20.2180   64.8611   23.6909 H       423      M_A    0.0000
   3263 H          19.8587   67.0683   23.9514 H       423      M_A    0.0000
   3264 H          19.4315   66.9161   25.5832 H       423      M_A    0.0000
   3265 C          21.5037   67.0447   25.2588 C.3     424      M_A    0.0000
   3266 C          21.4714   68.0060   26.3767 C.3     424      M_A    0.0000
   3267 H          22.0756   66.1985   25.5255 H       424      M_A    0.0000
   3268 H          21.9775   67.4792   24.4215 H       424      M_A    0.0000
   3269 H          20.6228   68.6285   26.2944 H       424      M_A    0.0000
   3270 H          21.3820   67.4914   27.2941 H       424      M_A    0.0000
   3271 C          22.7062   68.8710   26.4228 C.3     425      M_A    0.0000
   3272 C          23.5133   68.6290   27.6331 C.3     425      M_A    0.0000
   3273 H          23.2842   68.6852   25.5592 H       425      M_A    0.0000
   3274 H          22.4136   69.8843   26.3794 H       425      M_A    0.0000
   3275 H          23.0592   69.0875   28.4685 H       425      M_A    0.0000
   3276 H          23.5543   67.5947   27.8400 H       425      M_A    0.0000
   3277 C          24.9208   69.1535   27.4959 C.3     426      M_A    0.0000
   3278 C          25.2120   70.2313   28.4594 C.3     426      M_A    0.0000
   3279 H          25.5966   68.3541   27.6319 H       426      M_A    0.0000
   3280 H          25.0591   69.5028   26.5094 H       426      M_A    0.0000
   3281 H          24.7203   70.0417   29.3740 H       426      M_A    0.0000
   3282 H          26.2458   70.2582   28.6709 H       426      M_A    0.0000
   3283 C          24.7848   71.5850   27.9493 C.3     427      M_A    0.0000
   3284 C          24.4240   72.5061   29.0430 C.3     427      M_A    0.0000
   3285 H          25.5695   71.9952   27.3746 H       427      M_A    0.0000
   3286 H          23.9648   71.4593   27.2965 H       427      M_A    0.0000
   3287 H          23.6386   72.0964   29.6170 H       427      M_A    0.0000
   3288 H          25.2437   72.6309   29.6962 H       427      M_A    0.0000
   3289 C          23.9982   73.8602   28.5328 C.3     428      M_A    0.0000
   3290 C          22.5508   74.0897   28.6977 C.3     428      M_A    0.0000
   3291 H          24.5434   74.6041   29.0463 H       428      M_A    0.0000
   3292 H          24.2635   73.9388   27.5142 H       428      M_A    0.0000
   3293 H          22.0067   73.2993   28.2580 H       428      M_A    0.0000
   3294 H          22.3000   74.0969   29.7230 H       428      M_A    0.0000
   3295 C          22.1042   75.3907   28.0788 C.3     429      M_A    0.0000
   3296 C          20.8261   75.2559   27.3556 C.3     429      M_A    0.0000
   3297 H          22.0145   76.1165   28.8400 H       429      M_A    0.0000
   3298 H          22.8574   75.7314   27.4223 H       429      M_A    0.0000
   3299 H          20.9145   74.5270   26.5972 H       429      M_A    0.0000
   3300 H          20.0720   74.9193   28.0130 H       429      M_A    0.0000
   3301 C          20.3826   76.5555   26.7315 C.3     430      M_A    0.0000
   3302 C          18.9425   76.8062   26.9265 C.3     430      M_A    0.0000
   3303 H          20.9470   77.3436   27.1492 H       430      M_A    0.0000
   3304 H          20.6098   76.5330   25.7009 H       430      M_A    0.0000
   3305 H          18.5162   77.1793   26.0358 H       430      M_A    0.0000
   3306 H          18.4440   75.9019   27.1454 H       430      M_A    0.0000
   3307 C          18.6790   77.7887   28.0403 C.3     431      M_A    0.0000
   3308 C          17.2607   78.1863   28.1109 C.3     431      M_A    0.0000
   3309 H          18.9792   77.3549   28.9546 H       431      M_A    0.0000
   3310 H          19.2866   78.6394   27.8944 H       431      M_A    0.0000
   3311 H          17.1841   79.2248   28.2837 H       431      M_A    0.0000
   3312 H          16.7853   77.9968   27.1876 H       431      M_A    0.0000
   3313 C          16.5158   77.4559   29.2002 C.3     432      M_A    0.0000
   3314 C          15.1371   77.9529   29.3646 C.3     432      M_A    0.0000
   3315 H          16.5042   76.4252   28.9724 H       432      M_A    0.0000
   3316 H          17.0485   77.5602   30.1055 H       432      M_A    0.0000
   3317 H          15.0885   78.9762   29.1103 H       432      M_A    0.0000
   3318 H          14.4883   77.4454   28.7045 H       432      M_A    0.0000
   3319 C          14.6306   77.7778   30.7745 C.3     433      M_A    0.0000
   3320 C          13.1690   77.5878   30.8238 C.3     433      M_A    0.0000
   3321 H          15.1181   76.9494   31.2108 H       433      M_A    0.0000
   3322 H          14.9049   78.6244   31.3422 H       433      M_A    0.0000
   3323 H          12.6856   78.3586   30.2886 H       433      M_A    0.0000
   3324 H          12.9059   76.6806   30.3527 H       433      M_A    0.0000
   3325 C          12.6418   77.5726   32.2369 C.3     434      M_A    0.0000
   3326 C          12.0227   76.2812   32.5886 C.3     434      M_A    0.0000
   3327 H          13.4362   77.7853   32.8987 H       434      M_A    0.0000
   3328 H          11.9390   78.3526   32.3463 H       434      M_A    0.0000
   3329 H          10.9760   76.3356   32.4637 H       434      M_A    0.0000
   3330 H          12.3669   75.5254   31.9369 H       434      M_A    0.0000
   3331 C          12.3222   75.8717   34.0091 C.3     435      M_A    0.0000
   3332 C          11.1119   75.4421   34.7339 C.3     435      M_A    0.0000
   3333 H          13.0323   75.0907   33.9956 H       435      M_A    0.0000
   3334 H          12.7745   76.6838   34.5092 H       435      M_A    0.0000
   3335 H          10.7312   76.2417   35.3084 H       435      M_A    0.0000
   3336 H          10.3553   75.1743   34.0483 H       435      M_A    0.0000
   3337 C          11.3776   74.2710   35.6466 C.3     436      M_A    0.0000
   3338 C          10.6569   74.3864   36.9281 C.3     436      M_A    0.0000
   3339 H          11.0953   73.3827   35.1513 H       436      M_A    0.0000
   3340 H          12.4166   74.2041   35.8205 H       436      M_A    0.0000
   3341 H           9.8478   75.0571   36.8292 H       436      M_A    0.0000
   3342 H          10.2452   73.4524   37.1971 H       436      M_A    0.0000
   3343 C          11.5505   74.8638   38.0455 C.3     437      M_A    0.0000
   3344 C          11.3604   74.0863   39.2841 C.2     437      M_A    0.0000
   3345 H          12.5553   74.7998   37.7286 H       437      M_A    0.0000
   3346 H          11.3539   75.8852   38.2256 H       437      M_A    0.0000
   3347 H          10.3556   74.1503   39.6010 H       437      M_A    0.0000
   3348 H          11.5570   73.0649   39.1040 H       437      M_A    0.0000
   3349 C          52.7637   79.2738   11.6370 C.2     438      M_A    0.0000
   3350 C          52.2126   78.0110   10.6855 C.3     438      M_A    0.0000
   3351 H          52.1083   79.3509   12.6374 H       438      M_A    0.0000
   3352 H          52.6301   80.3140   11.0569 H       438      M_A    0.0000
   3353 H          52.5984   78.1466    9.5589 H       438      M_A    0.0000
   3354 H          52.6618   76.9724   11.0805 H       438      M_A    0.0000
   3355 C          50.5033   77.9046   10.6746 C.3     439      M_A    0.0000
   3356 C          49.8168   78.8427    9.4695 C.3     439      M_A    0.0000
   3357 H          50.1886   76.7570   10.5315 H       439      M_A    0.0000
   3358 H          50.0882   78.2443   11.7464 H       439      M_A    0.0000
   3359 H          50.1341   79.9898    9.6107 H       439      M_A    0.0000
   3360 H          50.2294   78.5009    8.3974 H       439      M_A    0.0000
   3361 C          48.1073   78.7398    9.4615 C.3     440      M_A    0.0000
   3362 C          47.4110   79.8297    8.3980 C.3     440      M_A    0.0000
   3363 H          47.7889   77.6215    9.1708 H       440      M_A    0.0000
   3364 H          47.7033   78.9348   10.5729 H       440      M_A    0.0000
   3365 H          48.1359   80.7712    8.2411 H       440      M_A    0.0000
   3366 H          47.2697   79.3210    7.3221 H       440      M_A    0.0000
   3367 C          45.8889   80.3906    8.9475 C.3     441      M_A    0.0000
   3368 C          44.7101   80.2900    7.7627 C.3     441      M_A    0.0000
   3369 H          45.5639   79.7489    9.9062 H       441      M_A    0.0000
   3370 H          46.0054   81.5251    9.3161 H       441      M_A    0.0000
   3371 H          45.0269   80.9461    6.8110 H       441      M_A    0.0000
   3372 H          44.6062   79.1585    7.3814 H       441      M_A    0.0000
   3373 C          43.1824   80.8273    8.3198 C.3     442      M_A    0.0000
   3374 C          42.5304   82.0155    7.3367 C.3     442      M_A    0.0000
   3375 H          42.4399   79.8882    8.3771 H       442      M_A    0.0000
   3376 H          43.3024   81.2398    9.4387 H       442      M_A    0.0000
   3377 H          43.3951   82.5313    6.6866 H       442      M_A    0.0000
   3378 H          41.7595   81.5282    6.5591 H       442      M_A    0.0000
   3379 C          41.7176   83.2267    8.2342 C.3     443      M_A    0.0000
   3380 C          40.1269   82.8164    8.5583 C.3     443      M_A    0.0000
   3381 H          42.3111   83.4120    9.2588 H       443      M_A    0.0000
   3382 H          41.7599   84.2557    7.6211 H       443      M_A    0.0000
   3383 H          39.3992   83.3240    7.7525 H       443      M_A    0.0000
   3384 H          39.9794   81.6313    8.4570 H       443      M_A    0.0000
   3385 C          39.6381   83.3016   10.1263 C.3     444      M_A    0.0000
   3386 C          39.5559   82.0130   11.1924 C.3     444      M_A    0.0000
   3387 H          40.4087   84.1239   10.5341 H       444      M_A    0.0000
   3388 H          38.5699   83.8396   10.0488 H       444      M_A    0.0000
   3389 H          38.9676   82.3377   12.1849 H       444      M_A    0.0000
   3390 H          38.9339   81.1133   10.7024 H       444      M_A    0.0000
   3391 C          41.1067   81.4359   11.6338 C.3     445      M_A    0.0000
   3392 C          41.4540   81.7199   13.2470 C.3     445      M_A    0.0000
   3393 H          41.1621   80.2613   11.4021 H       445      M_A    0.0000
   3394 H          41.9276   81.9631   10.9377 H       445      M_A    0.0000
   3395 H          40.5459   81.3472   13.9347 H       445      M_A    0.0000
   3396 H          42.4176   81.0884   13.5773 H       445      M_A    0.0000
   3397 C          41.7442   83.3773   13.5664 C.3     446      M_A    0.0000
   3398 C          41.6630   83.7322   15.2008 C.3     446      M_A    0.0000
   3399 H          42.8233   83.6706   13.1353 H       446      M_A    0.0000
   3400 H          40.9427   84.0331   12.9631 H       446      M_A    0.0000
   3401 H          41.0461   82.8808   15.7761 H       446      M_A    0.0000
   3402 H          42.7637   83.7395   15.6749 H       446      M_A    0.0000
   3403 C          40.9230   85.2475   15.4999 C.3     447      M_A    0.0000
   3404 C          39.5202   85.1016   16.4023 C.3     447      M_A    0.0000
   3405 H          41.7061   85.9542   16.0689 H       447      M_A    0.0000
   3406 H          40.6836   85.7744   14.4503 H       447      M_A    0.0000
   3407 H          39.0985   83.9821   16.3282 H       447      M_A    0.0000
   3408 H          39.7533   85.3056   17.5601 H       447      M_A    0.0000
   3409 C          38.3000   86.1864   15.8853 C.3     448      M_A    0.0000
   3410 C          36.7832   85.4775   15.8755 C.3     448      M_A    0.0000
   3411 H          38.3021   87.1428   16.6076 H       448      M_A    0.0000
   3412 H          38.5753   86.5831   14.7883 H       448      M_A    0.0000
   3413 H          36.8828   84.2962   15.6993 H       448      M_A    0.0000
   3414 H          36.2546   85.6231   16.9413 H       448      M_A    0.0000
   3415 C          35.7681   86.1330   14.6619 C.3     449      M_A    0.0000
   3416 C          34.3094   86.6756   15.2794 C.3     449      M_A    0.0000
   3417 H          36.3453   87.0329   14.1201 H       449      M_A    0.0000
   3418 H          35.5747   85.2958   13.8263 H       449      M_A    0.0000
   3419 H          33.4752   85.8216   15.1736 H       449      M_A    0.0000
   3420 H          34.4193   86.9062   16.4504 H       449      M_A    0.0000
   3421 C          33.7553   88.0896   14.4879 C.3     450      M_A    0.0000
   3422 C          32.0930   88.2635   14.5892 C.3     450      M_A    0.0000
   3423 H          34.2983   89.0417   14.9727 H       450      M_A    0.0000
   3424 H          34.0949   88.0476   13.3393 H       450      M_A    0.0000
   3425 H          31.5540   87.2298   14.3108 H       450      M_A    0.0000
   3426 H          31.7750   88.5252   15.7147 H       450      M_A    0.0000
   3427 C          31.5042   89.4906   13.5497 C.3     451      M_A    0.0000
   3428 C          29.8317   89.5083   13.4725 C.3     451      M_A    0.0000
   3429 H          31.9090   90.5507   13.9353 H       451      M_A    0.0000
   3430 H          31.9644   89.3237   12.4557 H       451      M_A    0.0000
   3431 H          29.3738   89.7901   14.5436 H       451      M_A    0.0000
   3432 H          29.4645   90.3548   12.7077 H       451      M_A    0.0000
   3433 C          29.1888   88.0002   12.9769 C.3     452      M_A    0.0000
   3434 C          27.5263   88.0514   12.7848 C.3     452      M_A    0.0000
   3435 H          29.7116   87.6768   11.9480 H       452      M_A    0.0000
   3436 H          29.4833   87.1692   13.7887 H       452      M_A    0.0000
   3437 H          27.0789   86.9396   12.7787 H       452      M_A    0.0000
   3438 H          27.0228   88.6199   13.7120 H       452      M_A    0.0000
   3439 C          27.0642   88.8404   11.3367 C.3     453      M_A    0.0000
   3440 C          25.4746   88.5202   10.9190 C.3     453      M_A    0.0000
   3441 H          27.2239   90.0205   11.4718 H       453      M_A    0.0000
   3442 H          27.7986   88.4923   10.4558 H       453      M_A    0.0000
   3443 H          25.3371   87.3517   10.6908 H       453      M_A    0.0000
   3444 H          24.7484   88.7795   11.8365 H       453      M_A    0.0000
   3445 C          24.9715   89.4135    9.5472 C.3     454      M_A    0.0000
   3446 C          23.8404   88.5859    8.6309 C.3     454      M_A    0.0000
   3447 H          24.5172   90.4604    9.9132 H       454      M_A    0.0000
   3448 H          25.9330   89.6702    8.8794 H       454      M_A    0.0000
   3449 H          24.0616   87.4086    8.6702 H       454      M_A    0.0000
   3450 H          22.7443   88.7456    9.0887 H       454      M_A    0.0000
   3451 C          23.8345   89.0921    6.9948 C.3     455      M_A    0.0000
   3452 C          22.5966   88.3854    6.1164 C.3     455      M_A    0.0000
   3453 H          23.7334   90.2859    6.9602 H       455      M_A    0.0000
   3454 H          24.8936   88.8220    6.5031 H       455      M_A    0.0000
   3455 H          22.9095   87.2772    5.7838 H       455      M_A    0.0000
   3456 H          21.6181   88.2763    6.7997 H       455      M_A    0.0000
   3457 C          22.1953   89.2888    4.7179 C.3     456      M_A    0.0000
   3458 C          22.5519   88.4636    3.3053 C.3     456      M_A    0.0000
   3459 H          21.0278   89.5575    4.7534 H       456      M_A    0.0000
   3460 H          22.7890   90.3296    4.7468 H       456      M_A    0.0000
   3461 H          21.7854   87.5544    3.1558 H       456      M_A    0.0000
   3462 H          22.4150   89.1880    2.3604 H       456      M_A    0.0000
   3463 C          24.1491   87.8455    3.3002 C.3     457      M_A    0.0000
   3464 C          24.7861   87.7460    1.7550 C.3     457      M_A    0.0000
   3465 H          24.8376   88.5488    3.9841 H       457      M_A    0.0000
   3466 H          24.1459   86.7626    3.8139 H       457      M_A    0.0000
   3467 H          24.1592   86.9606    1.1018 H       457      M_A    0.0000
   3468 H          24.6921   88.8056    1.2027 H       457      M_A    0.0000
   3469 C          26.4314   87.2705    1.7605 C.3     458      M_A    0.0000
   3470 C          26.7411   86.0440    0.6636 C.3     458      M_A    0.0000
   3471 H          27.1105   88.2260    1.5112 H       458      M_A    0.0000
   3472 H          26.7276   86.9169    2.8667 H       458      M_A    0.0000
   3473 H          26.0238   85.1085    0.8797 H       458      M_A    0.0000
   3474 H          26.4957   86.4161   -0.4490 H       458      M_A    0.0000
   3475 C          28.3694   85.5163    0.7226 C.3     459      M_A    0.0000
   3476 C          28.6904   84.3211   -0.4052 C.3     459      M_A    0.0000
   3477 H          29.0876   86.4581    0.5390 H       459      M_A    0.0000
   3478 H          28.6052   85.1138    1.8266 H       459      M_A    0.0000
   3479 H          28.7465   84.7969   -1.5037 H       459      M_A    0.0000
   3480 H          29.7613   83.8284   -0.1884 H       459      M_A    0.0000
   3481 C          27.5033   83.0866   -0.3983 C.3     460      M_A    0.0000
   3482 C          26.9524   82.7274   -1.9381 C.3     460      M_A    0.0000
   3483 H          27.9684   82.1063    0.1109 H       460      M_A    0.0000
   3484 H          26.5891   83.4336    0.2947 H       460      M_A    0.0000
   3485 H          27.0886   83.6779   -2.6554 H       460      M_A    0.0000
   3486 H          27.6062   81.8419   -2.4123 H       460      M_A    0.0000
   3487 C          25.3043   82.2618   -1.9456 C.3     461      M_A    0.0000
   3488 C          24.4794   82.8689   -3.2701 C.3     461      M_A    0.0000
   3489 H          25.2410   81.0650   -1.9353 H       461      M_A    0.0000
   3490 H          24.7907   82.6423   -0.9318 H       461      M_A    0.0000
   3491 H          25.2559   83.2088   -4.1175 H       461      M_A    0.0000
   3492 H          23.7938   82.0136   -3.7548 H       461      M_A    0.0000
   3493 C          23.4888   84.2048   -2.8613 C.3     462      M_A    0.0000
   3494 C          23.9942   85.6195   -3.6009 C.3     462      M_A    0.0000
   3495 H          22.3587   83.9581   -3.1751 H       462      M_A    0.0000
   3496 H          23.4938   84.3393   -1.6704 H       462      M_A    0.0000
   3497 H          24.9586   86.0554   -3.0384 H       462      M_A    0.0000
   3498 H          24.3262   85.3966   -4.7307 H       462      M_A    0.0000
   3499 C          22.7719   86.8191   -3.6111 C.3     463      M_A    0.0000
   3500 C          23.1156   88.0841   -2.5694 C.3     463      M_A    0.0000
   3501 H          22.6440   87.2307   -4.7294 H       463      M_A    0.0000
   3502 H          21.7291   86.3106   -3.3102 H       463      M_A    0.0000
   3503 H          23.9720   87.7590   -1.7965 H       463      M_A    0.0000
   3504 H          23.5445   89.0186   -3.1852 H       463      M_A    0.0000
   3505 C          21.7383   88.5902   -1.6863 C.3     464      M_A    0.0000
   3506 C          21.6320   90.2576   -1.5769 C.3     464      M_A    0.0000
   3507 H          20.7571   88.1496   -2.2150 H       464      M_A    0.0000
   3508 H          21.7840   88.1085   -0.5898 H       464      M_A    0.0000
   3509 H          22.0178   90.7615   -2.5937 H       464      M_A    0.0000
   3510 H          20.4881   90.5885   -1.4413 H       464      M_A    0.0000
   3511 C          22.5460   90.8819   -0.2700 C.3     465      M_A    0.0000
   3512 C          23.4347   92.2327   -0.7052 C.3     465      M_A    0.0000
   3513 H          21.8003   91.1526    0.6284 H       465      M_A    0.0000
   3514 H          23.2763   90.0227    0.1359 H       465      M_A    0.0000
   3515 H          24.2849   91.9287   -1.4934 H       465      M_A    0.0000
   3516 H          22.7277   93.0309   -1.2524 H       465      M_A    0.0000
   3517 C          24.1755   92.9844    0.6435 C.3     466      M_A    0.0000
   3518 C          25.7947   92.5818    0.7843 C.3     466      M_A    0.0000
   3519 H          24.0550   94.1721    0.5383 H       466      M_A    0.0000
   3520 H          23.5849   92.6652    1.6364 H       466      M_A    0.0000
   3521 H          25.9639   91.4401    0.4612 H       466      M_A    0.0000
   3522 H          26.4511   93.2516    0.0380 H       466      M_A    0.0000
   3523 C          26.3807   92.7967    2.3791 C.3     467      M_A    0.0000
   3524 C          27.6265   91.7396    2.7453 C.3     467      M_A    0.0000
   3525 H          26.7523   93.9292    2.5047 H       467      M_A    0.0000
   3526 H          25.4736   92.6449    3.1477 H       467      M_A    0.0000
   3527 H          27.2478   90.6071    2.6435 H       467      M_A    0.0000
   3528 H          28.5234   91.8743    1.9617 H       467      M_A    0.0000
   3529 C          28.2358   91.9779    4.3280 C.3     468      M_A    0.0000
   3530 C          28.9078   90.5832    4.9659 C.3     468      M_A    0.0000
   3531 H          29.0546   92.8526    4.2991 H       468      M_A    0.0000
   3532 H          27.3449   92.3635    5.0309 H       468      M_A    0.0000
   3533 H          29.7410   90.8638    5.7804 H       468      M_A    0.0000
   3534 H          28.0684   89.9468    5.5375 H       468      M_A    0.0000
   3535 C          29.6230   89.5978    3.7615 C.3     469      M_A    0.0000
   3536 C          30.4974   88.3289    4.4166 C.3     469      M_A    0.0000
   3537 H          28.7599   89.1755    3.0452 H       469      M_A    0.0000
   3538 H          30.3350   90.2781    3.0784 H       469      M_A    0.0000
   3539 H          30.6983   87.4936    3.5809 H       469      M_A    0.0000
   3540 H          31.5714   88.7154    4.7820 H       469      M_A    0.0000
   3541 C          29.6922   87.6017    5.7417 C.3     470      M_A    0.0000
   3542 C          29.3667   85.9811    5.4746 C.3     470      M_A    0.0000
   3543 H          30.3696   87.7286    6.7222 H       470      M_A    0.0000
   3544 H          28.6728   88.1970    5.9483 H       470      M_A    0.0000
   3545 H          29.2414   85.7751    4.3006 H       470      M_A    0.0000
   3546 H          30.2882   85.3103    5.8453 H       470      M_A    0.0000
   3547 C          27.9473   85.4628    6.2806 C.3     471      M_A    0.0000
   3548 C          28.2869   84.5037    7.6104 C.2     471      M_A    0.0000
   3549 H          27.3210   86.4271    6.6186 H       471      M_A    0.0000
   3550 H          27.2603   84.8609    5.5045 H       471      M_A    0.0000
   3551 H          28.9132   83.5394    7.2724 H       471      M_A    0.0000
   3552 H          28.9739   85.1055    8.3864 H       471      M_A    0.0000
   3553 C          56.2220   88.6550    6.8933 C.2     472      M_A    0.0000
   3554 C          56.0524   87.5198    5.8776 C.3     472      M_A    0.0000
   3555 H          56.0072   88.2896    7.9052 H       472      M_A    0.0000
   3556 H          55.5000   89.4549    6.6874 H       472      M_A    0.0000
   3557 H          55.7722   87.9292    4.8991 H       472      M_A    0.0000
   3558 H          57.0053   86.9943    5.7381 H       472      M_A    0.0000
   3559 C          54.9638   86.4828    6.3218 C.3     473      M_A    0.0000
   3560 C          53.7930   87.1475    7.0542 C.3     473      M_A    0.0000
   3561 H          54.5992   85.9509    5.4344 H       473      M_A    0.0000
   3562 H          55.4341   85.7315    6.9683 H       473      M_A    0.0000
   3563 H          54.1696   87.7949    7.8558 H       473      M_A    0.0000
   3564 H          53.2352   87.7926    6.3641 H       473      M_A    0.0000
   3565 C          52.8069   86.0980    7.6735 C.3     474      M_A    0.0000
   3566 C          52.5008   86.3876    9.1471 C.3     474      M_A    0.0000
   3567 H          51.8783   86.0977    7.0894 H       474      M_A    0.0000
   3568 H          53.2446   85.0974    7.5699 H       474      M_A    0.0000
   3569 H          53.3882   86.8021    9.6413 H       474      M_A    0.0000
   3570 H          51.7130   87.1471    9.2254 H       474      M_A    0.0000
   3571 C          52.0440   85.1040    9.9224 C.3     475      M_A    0.0000
   3572 C          51.6127   85.4161   11.3596 C.3     475      M_A    0.0000
   3573 H          51.2167   84.6357    9.3747 H       475      M_A    0.0000
   3574 H          52.8688   84.3807    9.9259 H       475      M_A    0.0000
   3575 H          52.2397   86.2145   11.7755 H       475      M_A    0.0000
   3576 H          50.5807   85.7882   11.3703 H       475      M_A    0.0000
   3577 C          51.7071   84.1610   12.2941 C.3     476      M_A    0.0000
   3578 C          50.3750   83.8502   12.9855 C.3     476      M_A    0.0000
   3579 H          52.0312   83.2994   11.6973 H       476      M_A    0.0000
   3580 H          52.4882   84.3365   13.0441 H       476      M_A    0.0000
   3581 H          49.7502   84.7513   13.0208 H       476      M_A    0.0000
   3582 H          49.8171   83.1024   12.4083 H       476      M_A    0.0000
   3583 C          50.5740   83.3158   14.4457 C.3     477      M_A    0.0000
   3584 C          50.0695   81.8782   14.6120 C.3     477      M_A    0.0000
   3585 H          51.6395   83.3724   14.7008 H       477      M_A    0.0000
   3586 H          50.0479   83.9819   15.1408 H       477      M_A    0.0000
   3587 H          49.0545   81.8815   15.0282 H       477      M_A    0.0000
   3588 H          50.0072   81.3859   13.6336 H       477      M_A    0.0000
   3589 C          50.9964   81.0277   15.5474 C.3     478      M_A    0.0000
   3590 C          50.2937   79.7723   16.0757 C.3     478      M_A    0.0000
   3591 H          51.8991   80.7473   14.9906 H       478      M_A    0.0000
   3592 H          51.3251   81.6554   16.3850 H       478      M_A    0.0000
   3593 H          50.8103   79.3997   16.9689 H       478      M_A    0.0000
   3594 H          49.2691   80.0159   16.3830 H       478      M_A    0.0000
   3595 C          50.2418   78.6264   15.0072 C.3     479      M_A    0.0000
   3596 C          49.9043   77.2669   15.6293 C.3     479      M_A    0.0000
   3597 H          49.4966   78.8869   14.2453 H       479      M_A    0.0000
   3598 H          51.2109   78.5758   14.4956 H       479      M_A    0.0000
   3599 H          49.4187   77.4089   16.6027 H       479      M_A    0.0000
   3600 H          49.1877   76.7305   14.9950 H       479      M_A    0.0000
   3601 C          51.1756   76.3709   15.8247 C.3     480      M_A    0.0000
   3602 C          50.9382   75.2365   16.8276 C.3     480      M_A    0.0000
   3603 H          51.4699   75.9576   14.8520 H       480      M_A    0.0000
   3604 H          52.0058   77.0038   16.1622 H       480      M_A    0.0000
   3605 H          50.8018   75.6479   17.8354 H       480      M_A    0.0000
   3606 H          50.0138   74.7011   16.5781 H       480      M_A    0.0000
   3607 C          52.1238   74.2113   16.8566 C.3     481      M_A    0.0000
   3608 C          51.9178   73.1147   17.9073 C.3     481      M_A    0.0000
   3609 H          52.2282   73.7632   15.8607 H       481      M_A    0.0000
   3610 H          53.0558   74.7541   17.0571 H       481      M_A    0.0000
   3611 H          52.6369   72.3016   17.7483 H       481      M_A    0.0000
   3612 H          52.1108   73.5141   18.9107 H       481      M_A    0.0000
   3613 C          50.4674   72.5211   17.8700 C.3     482      M_A    0.0000
   3614 C          50.2413   71.4709   18.9632 C.3     482      M_A    0.0000
   3615 H          49.7469   73.3408   17.9811 H       482      M_A    0.0000
   3616 H          50.2916   72.0789   16.8815 H       482      M_A    0.0000
   3617 H          50.1229   71.9615   19.9373 H       482      M_A    0.0000
   3618 H          49.3107   70.9226   18.7714 H       482      M_A    0.0000
   3619 C          51.4228   70.4447   19.0547 C.3     483      M_A    0.0000
   3620 C          51.2311   69.4382   20.1946 C.3     483      M_A    0.0000
   3621 H          51.5074   69.9166   18.0969 H       483      M_A    0.0000
   3622 H          52.3606   70.9966   19.1940 H       483      M_A    0.0000
   3623 H          51.6746   69.8280   21.1192 H       483      M_A    0.0000
   3624 H          50.1618   69.2950   20.3940 H       483      M_A    0.0000
   3625 C          51.8759   68.0461   19.8727 C.3     484      M_A    0.0000
   3626 C          52.6509   67.4752   21.0654 C.3     484      M_A    0.0000
   3627 H          51.0830   67.3503   19.5714 H       484      M_A    0.0000
   3628 H          52.5430   68.1567   19.0088 H       484      M_A    0.0000
   3629 H          52.3144   67.9508   21.9950 H       484      M_A    0.0000
   3630 H          52.4460   66.4024   21.1684 H       484      M_A    0.0000
   3631 C          54.1981   67.6828   20.9228 C.3     485      M_A    0.0000
   3632 C          54.9979   66.6991   21.7840 C.3     485      M_A    0.0000
   3633 H          54.4744   67.5693   19.8672 H       485      M_A    0.0000
   3634 H          54.4439   68.7144   21.2036 H       485      M_A    0.0000
   3635 H          54.3225   66.3334   23.1985 H       485      M_A    0.0000
   3636 H          55.2682   65.3048   21.0267 H       485      M_A    0.0000
   3637 C          57.0144   67.7353   22.1712 C.3     486      M_A    0.0000
   3638 C          58.4672   67.4310   20.4821 C.3     486      M_A    0.0000
   3639 H          56.7545   69.3074   22.3992 H       486      M_A    0.0000
   3640 H          57.6355   67.1659   23.5427 H       486      M_A    0.0000
   3641 H          58.3815   65.9154   19.9467 H       486      M_A    0.0000
   3642 H          58.0794   68.3816   19.2425 H       486      M_A    0.0000
   3643 C          60.6357   67.8751   21.1067 C.3     487      M_A    0.0000
   3644 C          61.7369   69.0833   19.5627 C.3     487      M_A    0.0000
   3645 H          60.6205   68.6585   22.5127 H       487      M_A    0.0000
   3646 H          61.3978   66.4806   21.3628 H       487      M_A    0.0000
   3647 H          63.2848   69.2312   19.9786 H       487      M_A    0.0000
   3648 H          61.7100   68.3227   18.1445 H       487      M_A    0.0000
   3649 C          60.8375   71.1831   19.2949 C.3     488      M_A    0.0000
   3650 C          62.1899   72.5468   18.1254 C.3     488      M_A    0.0000
   3651 H          59.4153   71.0476   18.5534 H       488      M_A    0.0000
   3652 H          60.5433   71.8107   20.7477 H       488      M_A    0.0000
   3653 H          63.7229   72.0900   18.3045 H       488      M_A    0.0000
   3654 H          61.8565   72.4402   16.5544 H       488      M_A    0.0000
   3655 C          61.9896   74.7430   18.7785 C.3     489      M_A    0.0000
   3656 C          63.7168   76.0012   18.0784 C.3     489      M_A    0.0000
   3657 H          60.6077   75.3321   18.2007 H       489      M_A    0.0000
   3658 H          61.8808   74.7991   20.3834 H       489      M_A    0.0000
   3659 H          63.2032   77.4763   17.6898 H       489      M_A    0.0000
   3660 H          64.7856   76.1824   19.2681 H       489      M_A    0.0000
   3661 C          64.7821   75.0838   16.2581 C.3     490      M_A    0.0000
   3662 C          66.6967   76.1538   15.7625 C.3     490      M_A    0.0000
   3663 H          65.0797   73.5309   16.5595 H       490      M_A    0.0000
   3664 H          63.7834   75.1266   14.9965 H       490      M_A    0.0000
   3665 H          66.5848   77.7053   16.1760 H       490      M_A    0.0000
   3666 H          67.9122   75.5343   16.6168 H       490      M_A    0.0000
   3667 C          67.2175   76.0181   13.5264 C.3     491      M_A    0.0000
   3668 C          68.7746   77.5233   12.9212 C.3     491      M_A    0.0000
   3669 H          67.7349   74.5286   13.2036 H       491      M_A    0.0000
   3670 H          65.8745   76.2373   12.6667 H       491      M_A    0.0000
   3671 H          70.1498   77.2418   13.7087 H       491      M_A    0.0000
   3672 H          69.1024   77.3778   11.3521 H       491      M_A    0.0000
   3673 C          68.1083   79.6841   13.3421 C.3     492      M_A    0.0000
   3674 C          69.7171   81.1805   12.8637 C.3     492      M_A    0.0000
   3675 H          66.7879   79.9977   12.4766 H       492      M_A    0.0000
   3676 H          67.6854   79.8043   14.8904 H       492      M_A    0.0000
   3677 H          71.1668   80.4945   12.9990 H       492      M_A    0.0000
   3678 H          69.5785   81.6709   11.3370 H       492      M_A    0.0000
   3679 C          69.6354   83.0191   14.2432 C.3     493      M_A    0.0000
   3680 C          70.3773   84.8819   13.2253 C.3     493      M_A    0.0000
   3681 H          68.1187   83.2283   14.7396 H       493      M_A    0.0000
   3682 H          70.5150   82.7209   15.5577 H       493      M_A    0.0000
   3683 H          71.3123   85.7241   14.2289 H       493      M_A    0.0000
   3684 H          71.2916   84.4921   11.9592 H       493      M_A    0.0000
   3685 C          68.6558   86.2288   12.5099 C.3     494      M_A    0.0000
   3686 C          69.3955   88.0452   11.4099 C.3     494      M_A    0.0000
   3687 H          67.6828   85.3669   11.5605 H       494      M_A    0.0000
   3688 H          67.7811   86.6743   13.7855 H       494      M_A    0.0000
   3689 H          70.7673   88.5690   12.0691 H       494      M_A    0.0000
   3690 H          69.7320   87.6663    9.8822 H       494      M_A    0.0000
   3691 C          67.8624   89.7596   11.4280 C.3     495      M_A    0.0000
   3692 C          66.9295   90.0901    9.4088 C.3     495      M_A    0.0000
   3693 H          66.7227   89.4251   12.5143 H       495      M_A    0.0000
   3694 H          68.5939   91.1046   11.9248 H       495      M_A    0.0000
   3695 H          66.8236   91.6664    9.1011 H       495      M_A    0.0000
   3696 H          67.8618   89.4565    8.2598 H       495      M_A    0.0000
   3697 C          64.8305   89.1623    9.2560 C.3     496      M_A    0.0000
   3698 C          64.1506   88.9392    7.1242 C.3     496      M_A    0.0000
   3699 H          64.8435   87.7269    9.9842 H       496      M_A    0.0000
   3700 H          63.7947   90.0852   10.0720 H       496      M_A    0.0000
   3701 H          65.4198   88.9637    6.1346 H       496      M_A    0.0000
   3702 H          63.4329   87.5130    6.9202 H       496      M_A    0.0000
   3703 C          62.6893   90.6010    6.4970 C.3     497      M_A    0.0000
   3704 C          61.9064   90.3042    4.4100 C.3     497      M_A    0.0000
   3705 H          61.4678   90.6402    7.5444 H       497      M_A    0.0000
   3706 H          63.4394   92.0207    6.6084 H       497      M_A    0.0000
   3707 H          62.7605   91.1865    3.3695 H       497      M_A    0.0000
   3708 H          62.0839   88.7670    3.9673 H       497      M_A    0.0000
   3709 C          59.6871   90.8783    4.2218 C.3     498      M_A    0.0000
   3710 C          58.6889   89.8631    2.4813 C.3     498      M_A    0.0000
   3711 H          58.9338   90.4937    5.5912 H       498      M_A    0.0000
   3712 H          59.5760   92.4765    4.0664 H       498      M_A    0.0000
   3713 H          58.6596   90.8495    1.2097 H       498      M_A    0.0000
   3714 H          59.5335   88.5658    2.0406 H       498      M_A    0.0000
   3715 C          56.5360   89.2161    2.9673 C.3     499      M_A    0.0000
   3716 C          55.1145   89.6487    1.2795 C.3     499      M_A    0.0000
   3717 H          56.5307   87.6420    3.3036 H       499      M_A    0.0000
   3718 H          56.0549   89.9756    4.3024 H       499      M_A    0.0000
   3719 H          53.6167   89.8086    1.8466 H       499      M_A    0.0000
   3720 H          55.4962   91.0478    0.5813 H       499      M_A    0.0000
   3721 C          55.1295   87.9944   -0.3184 C.3     500      M_A    0.0000
   3722 C          54.5441   88.7649   -2.3482 C.3     500      M_A    0.0000
   3723 H          56.6006   87.3441   -0.3781 H       500      M_A    0.0000
   3724 H          54.1245   86.8230    0.1382 H       500      M_A    0.0000
   3725 H          52.9821   88.4833   -2.6160 H       500      M_A    0.0000
   3726 H          54.7435   90.3608   -2.4114 H       500      M_A    0.0000
   3727 C          55.7718   87.7970   -4.0353 C.3     501      M_A    0.0000
   3728 C          57.1589   89.2621   -5.0282 C.3     501      M_A    0.0000
   3729 H          56.6124   86.5674   -3.4254 H       501      M_A    0.0000
   3730 H          54.7602   87.1723   -5.1203 H       501      M_A    0.0000
   3731 H          56.9882   89.1873   -6.6269 H       501      M_A    0.0000
   3732 H          56.7788   90.7643   -4.5926 H       501      M_A    0.0000
   3733 C          59.3629   88.8720   -4.4989 C.3     502      M_A    0.0000
   3734 C          60.4380   90.7503   -3.8884 C.3     502      M_A    0.0000
   3735 H          59.4271   87.7883   -3.3106 H       502      M_A    0.0000
   3736 H          60.0920   88.2073   -5.7706 H       502      M_A    0.0000
   3737 H          59.7797   92.0250   -4.6180 H       502      M_A    0.0000
   3738 H          60.2758   90.9892   -2.3049 H       502      M_A    0.0000
   3739 C          62.6789   90.6778   -4.4014 C.3     503      M_A    0.0000
   3740 C          63.9449   90.1551   -2.6180 C.3     503      M_A    0.0000
   3741 H          62.9078   89.6008   -5.5754 H       503      M_A    0.0000
   3742 H          63.1222   92.1076   -4.9929 H       503      M_A    0.0000
   3743 H          65.4743   89.9392   -3.0710 H       503      M_A    0.0000
   3744 H          63.9425   91.3715   -1.5638 H       503      M_A    0.0000
   3745 C          63.2108   88.2519   -1.5556 C.3     504      M_A    0.0000
   3746 C          64.8331   87.2715   -0.3458 C.3     504      M_A    0.0000
   3747 H          61.9687   88.6342   -0.6059 H       504      M_A    0.0000
   3748 H          62.6490   87.2249   -2.6603 H       504      M_A    0.0000
   3749 H          65.5093   86.0808   -1.1917 H       504      M_A    0.0000
   3750 H          66.0007   88.3323   -0.0261 H       504      M_A    0.0000
   3751 C          64.0448   86.4164    1.6385 C.3     505      M_A    0.0000
   3752 C          65.3117   84.7214    2.3991 C.3     505      M_A    0.0000
   3753 H          63.9929   87.5991    2.7289 H       505      M_A    0.0000
   3754 H          62.5291   85.9191    1.4234 H       505      M_A    0.0000
   3755 H          64.8260   83.3329    1.7457 H       505      M_A    0.0000
   3756 H          66.8431   84.9325    1.9506 H       505      M_A    0.0000
   3757 C          65.2296   84.5315    4.6897 C.3     506      M_A    0.0000
   3758 C          65.0954   82.3903    5.3631 C.3     506      M_A    0.0000
   3759 H          66.5402   85.2257    5.3152 H       506      M_A    0.0000
   3760 H          63.9626   85.3617    5.2340 H       506      M_A    0.0000
   3761 H          65.6078   81.4107    4.1933 H       506      M_A    0.0000
   3762 H          66.0630   82.1473    6.6263 H       506      M_A    0.0000
   3763 C          62.9522   81.7922    5.9451 C.3     507      M_A    0.0000
   3764 C          62.8524   80.8627    7.9903 C.3     507      M_A    0.0000
   3765 H          62.0148   83.0994    5.8867 H       507      M_A    0.0000
   3766 H          62.3829   80.7656    4.8439 H       507      M_A    0.0000
   3767 H          62.8607   79.2578    7.8681 H       507      M_A    0.0000
   3768 H          64.1548   81.2679    8.8448 H       507      M_A    0.0000
   3769 C          60.9742   81.5081    9.1504 C.3     508      M_A    0.0000
   3770 C          59.1971   80.2116    8.6842 C.2     508      M_A    0.0000
   3771 H          61.2955   81.4582   10.7268 H       508      M_A    0.0000
   3772 H          60.6462   83.0431    8.7939 H       508      M_A    0.0000
   3773 H          58.8759   80.2615    7.1078 H       508      M_A    0.0000
   3774 H          59.5251   78.6767    9.0407 H       508      M_A    0.0000
   3775 C          59.2146   60.5742   22.8485 C.2     509      M_A    0.0000
   3776 C          58.8225   61.3756   24.0947 C.3     509      M_A    0.0000
   3777 H          59.5785   59.5809   23.1392 H       509      M_A    0.0000
   3778 H          60.0407   61.0719   22.3258 H       509      M_A    0.0000
   3779 H          58.7926   62.4467   23.8592 H       509      M_A    0.0000
   3780 H          57.8125   61.0962   24.4193 H       509      M_A    0.0000
   3781 C          59.8170   61.1476   25.2849 C.3     510      M_A    0.0000
   3782 C          61.2036   60.7036   24.8063 C.3     510      M_A    0.0000
   3783 H          59.8979   62.0775   25.8613 H       510      M_A    0.0000
   3784 H          59.3931   60.3942   25.9604 H       510      M_A    0.0000
   3785 H          61.2076   59.6233   24.6154 H       510      M_A    0.0000
   3786 H          61.4476   61.1925   23.8550 H       510      M_A    0.0000
   3787 C          62.3265   61.0367   25.8482 C.3     511      M_A    0.0000
   3788 C          63.7043   61.1787   25.1918 C.3     511      M_A    0.0000
   3789 H          62.0610   61.9645   26.3698 H       511      M_A    0.0000
   3790 H          62.3512   60.2447   26.6069 H       511      M_A    0.0000
   3791 H          63.9746   60.2471   24.6795 H       511      M_A    0.0000
   3792 H          63.6768   61.9632   24.4254 H       511      M_A    0.0000
   3793 C          64.8246   61.5270   26.2315 C.3     512      M_A    0.0000
   3794 C          65.9983   62.6625   26.0387 C.3     512      M_A    0.0000
   3795 H          64.1721   61.7778   27.1786 H       512      M_A    0.0000
   3796 H          65.3109   60.4728   26.4256 H       512      M_A    0.0000
   3797 H          66.6626   62.7250   27.0083 H       512      M_A    0.0000
   3798 H          66.7153   62.3561   25.1569 H       512      M_A    0.0000
   3799 C          65.3639   64.1866   25.7169 C.3     513      M_A    0.0000
   3800 C          66.5210   65.2569   25.2479 C.3     513      M_A    0.0000
   3801 H          64.5431   64.0869   24.8792 H       513      M_A    0.0000
   3802 H          64.8164   64.5810   26.6813 H       513      M_A    0.0000
   3803 H          67.5279   65.0377   25.8167 H       513      M_A    0.0000
   3804 H          66.7467   65.1299   24.0998 H       513      M_A    0.0000
   3805 C          66.0701   66.8510   25.5387 C.3     514      M_A    0.0000
   3806 C          66.4476   67.8442   24.2836 C.3     514      M_A    0.0000
   3807 H          64.9121   66.8859   25.7468 H       514      M_A    0.0000
   3808 H          66.6014   67.2224   26.5212 H       514      M_A    0.0000
   3809 H          65.6728   67.7018   23.4091 H       514      M_A    0.0000
   3810 H          66.3722   68.9690   24.6222 H       514      M_A    0.0000
   3811 C          67.9949   67.5597   23.6887 C.3     515      M_A    0.0000
   3812 C          68.1781   68.0982   22.1458 C.3     515      M_A    0.0000
   3813 H          68.7757   68.0858   24.3952 H       515      M_A    0.0000
   3814 H          68.2154   66.4048   23.7419 H       515      M_A    0.0000
   3815 H          68.0050   69.2616   22.1011 H       515      M_A    0.0000
   3816 H          69.2801   67.9061   21.7795 H       515      M_A    0.0000
   3817 C          67.1141   67.3505   21.0791 C.3     516      M_A    0.0000
   3818 C          67.8067   67.0459   19.6192 C.3     516      M_A    0.0000
   3819 H          66.7345   66.3469   21.5631 H       516      M_A    0.0000
   3820 H          66.1688   68.0383   20.9418 H       516      M_A    0.0000
   3821 H          68.7491   67.7347   19.4679 H       516      M_A    0.0000
   3822 H          68.1908   65.9340   19.5788 H       516      M_A    0.0000
   3823 C          66.7406   67.2978   18.3429 C.3     517      M_A    0.0000
   3824 C          67.5219   67.5256   16.9139 C.3     517      M_A    0.0000
   3825 H          66.0174   66.3725   18.2644 H       517      M_A    0.0000
   3826 H          66.0685   68.2323   18.5888 H       517      M_A    0.0000
   3827 H          68.6359   67.8510   17.1104 H       517      M_A    0.0000
   3828 H          67.5661   66.5148   16.3125 H       517      M_A    0.0000
   3829 C          66.7767   68.6925   15.9590 C.3     518      M_A    0.0000
   3830 C          66.4117   68.1291   14.4578 C.3     518      M_A    0.0000
   3831 H          65.7984   69.0586   16.5015 H       518      M_A    0.0000
   3832 H          67.4879   69.6268   15.8775 H       518      M_A    0.0000
   3833 H          67.3592   68.1908   13.7622 H       518      M_A    0.0000
   3834 H          66.1083   66.9933   14.5157 H       518      M_A    0.0000
   3835 C          65.1564   68.9897   13.7418 C.3     519      M_A    0.0000
   3836 C          64.5822   68.2469   12.3918 C.3     519      M_A    0.0000
   3837 H          64.2909   69.1230   14.5282 H       519      M_A    0.0000
   3838 H          65.5406   70.0700   13.4756 H       519      M_A    0.0000
   3839 H          65.4714   67.7758   11.7812 H       519      M_A    0.0000
   3840 H          63.8702   67.3589   12.6916 H       519      M_A    0.0000
   3841 C          63.7386   69.3045   11.3923 C.3     520      M_A    0.0000
   3842 C          63.9841   68.9847    9.7981 C.3     520      M_A    0.0000
   3843 H          62.5915   69.2329   11.6464 H       520      M_A    0.0000
   3844 H          64.0713   70.4062   11.6389 H       520      M_A    0.0000
   3845 H          65.1185   68.7362    9.6063 H       520      M_A    0.0000
   3846 H          63.3706   68.0324    9.4783 H       520      M_A    0.0000
   3847 C          63.5373   70.2731    8.8134 C.3     521      M_A    0.0000
   3848 C          64.7740   70.7856    7.8584 C.3     521      M_A    0.0000
   3849 H          62.6237   69.9434    8.1485 H       521      M_A    0.0000
   3850 H          63.1593   71.1567    9.4930 H       521      M_A    0.0000
   3851 H          65.8034   70.4326    8.3070 H       521      M_A    0.0000
   3852 H          64.6866   70.2999    6.7898 H       521      M_A    0.0000
   3853 C          64.8001   72.4591    7.6927 C.3     522      M_A    0.0000
   3854 C          66.1564   72.9886    6.9284 C.3     522      M_A    0.0000
   3855 H          63.8431   72.7963    7.0963 H       522      M_A    0.0000
   3856 H          64.7222   72.9473    8.7609 H       522      M_A    0.0000
   3857 H          67.1116   72.5136    7.4260 H       522      M_A    0.0000
   3858 H          66.1501   72.6368    5.8052 H       522      M_A    0.0000
   3859 C          66.2992   74.6639    6.9710 C.3     523      M_A    0.0000
   3860 C          67.2690   75.2373    5.7731 C.3     523      M_A    0.0000
   3861 H          65.2257   75.1385    6.8831 H       523      M_A    0.0000
   3862 H          66.7245   74.9818    8.0215 H       523      M_A    0.0000
   3863 H          68.3553   75.4219    6.1869 H       523      M_A    0.0000
   3864 H          67.3656   74.4380    4.9146 H       523      M_A    0.0000
   3865 C          66.6885   76.6722    5.1150 C.3     524      M_A    0.0000
   3866 C          65.6251   76.4099    3.8884 C.3     524      M_A    0.0000
   3867 H          66.1743   77.3000    5.9677 H       524      M_A    0.0000
   3868 H          67.6002   77.3090    4.7295 H       524      M_A    0.0000
   3869 H          65.5503   77.3671    3.2075 H       524      M_A    0.0000
   3870 H          66.0096   75.5353    3.2010 H       524      M_A    0.0000
   3871 C          64.0876   76.0224    4.4497 C.3     525      M_A    0.0000
   3872 C          63.1260   75.4138    3.2627 C.3     525      M_A    0.0000
   3873 H          64.1889   75.2433    5.3262 H       525      M_A    0.0000
   3874 H          63.5975   76.9881    4.9108 H       525      M_A    0.0000
   3875 H          63.5452   75.7209    2.2065 H       525      M_A    0.0000
   3876 H          63.1337   74.2374    3.3004 H       525      M_A    0.0000
   3877 C          61.5370   75.9500    3.3921 C.3     526      M_A    0.0000
   3878 C          60.5889   74.8946    4.2236 C.3     526      M_A    0.0000
   3879 H          61.5331   77.0006    3.9229 H       526      M_A    0.0000
   3880 H          61.1034   76.1162    2.3105 H       526      M_A    0.0000
   3881 H          59.4807   74.9521    3.8311 H       526      M_A    0.0000
   3882 H          60.9558   73.7914    4.0397 H       526      M_A    0.0000
   3883 C          60.5948   75.1994    5.8776 C.3     527      M_A    0.0000
   3884 C          59.8241   74.0236    6.7307 C.2     527      M_A    0.0000
   3885 H          61.7099   75.2969    6.2415 H       527      M_A    0.0000
   3886 H          60.0831   76.2412    6.0733 H       527      M_A    0.0000
   3887 H          58.7090   73.9261    6.3668 H       527      M_A    0.0000
   3888 H          60.3358   72.9818    6.5350 H       527      M_A    0.0000
   3889 C          60.8326   84.4143   28.3755 C.2     528      M_A    0.0000
   3890 C          61.9010   84.4566   27.2846 C.3     528      M_A    0.0000
   3891 H          61.2208   83.9033   29.2608 H       528      M_A    0.0000
   3892 H          59.9697   83.8368   28.0329 H       528      M_A    0.0000
   3893 H          62.1271   85.4935   27.0214 H       528      M_A    0.0000
   3894 H          62.8313   84.0164   27.6537 H       528      M_A    0.0000
   3895 C          61.4602   83.6941   25.9942 C.3     529      M_A    0.0000
   3896 C          61.6135   82.1808   26.1351 C.3     529      M_A    0.0000
   3897 H          60.4194   83.9466   25.7738 H       529      M_A    0.0000
   3898 H          62.0559   84.0544   25.1511 H       529      M_A    0.0000
   3899 H          60.7792   81.6722   25.6445 H       529      M_A    0.0000
   3900 H          62.5246   81.8477   25.6307 H       529      M_A    0.0000
   3901 C          61.6708   81.7281   27.6294 C.3     530      M_A    0.0000
   3902 C          61.9783   80.2386   27.7716 C.3     530      M_A    0.0000
   3903 H          62.4309   82.3190   28.1477 H       530      M_A    0.0000
   3904 H          60.7141   81.9605   28.1050 H       530      M_A    0.0000
   3905 H          62.9866   80.1004   28.1711 H       530      M_A    0.0000
   3906 H          61.2911   79.7807   28.4883 H       530      M_A    0.0000
   3907 C          61.8672   79.4785   26.4111 C.3     531      M_A    0.0000
   3908 C          61.3328   78.0579   26.5836 C.3     531      M_A    0.0000
   3909 H          61.2141   80.0461   25.7426 H       531      M_A    0.0000
   3910 H          62.8535   79.4534   25.9398 H       531      M_A    0.0000
   3911 H          62.1626   77.3468   26.6177 H       531      M_A    0.0000
   3912 H          60.8041   77.9694   27.5365 H       531      M_A    0.0000
   3913 C          60.3635   77.6457   25.4297 C.3     532      M_A    0.0000
   3914 C          59.6405   76.3324   25.7223 C.3     532      M_A    0.0000
   3915 H          59.6364   78.4479   25.2767 H       532      M_A    0.0000
   3916 H          60.9361   77.5599   24.5021 H       532      M_A    0.0000
   3917 H          60.2211   75.7344   26.4300 H       532      M_A    0.0000
   3918 H          58.6765   76.5329   26.1977 H       532      M_A    0.0000
   3919 C          59.3987   75.4887   24.4297 C.3     533      M_A    0.0000
   3920 C          58.0207   75.7431   23.8217 C.3     533      M_A    0.0000
   3921 H          60.1793   75.7271   23.7021 H       533      M_A    0.0000
   3922 H          59.5107   74.4290   24.6744 H       533      M_A    0.0000
   3923 H          57.2470   75.2785   24.4390 H       533      M_A    0.0000
   3924 H          57.8092   76.8158   23.8078 H       533      M_A    0.0000
   3925 C          57.9041   75.1880   22.3659 C.3     534      M_A    0.0000
   3926 C          57.0471   76.0824   21.4721 C.3     534      M_A    0.0000
   3927 H          58.9084   75.0894   21.9449 H       534      M_A    0.0000
   3928 H          57.4800   74.1810   22.4056 H       534      M_A    0.0000
   3929 H          56.0446   76.1860   21.8963 H       534      M_A    0.0000
   3930 H          57.4745   77.0878   21.4275 H       534      M_A    0.0000
   3931 C          56.9235   75.5229   20.0186 C.3     535      M_A    0.0000
   3932 C          55.5639   75.8300   19.3937 C.3     535      M_A    0.0000
   3933 H          57.7225   75.9508   19.4071 H       535      M_A    0.0000
   3934 H          57.0900   74.4425   20.0416 H       535      M_A    0.0000
   3935 H          54.8403   75.0592   19.6725 H       535      M_A    0.0000
   3936 H          55.1786   76.7772   19.7810 H       535      M_A    0.0000
   3937 C          55.6342   75.9147   17.8352 C.3     536      M_A    0.0000
   3938 C          54.5954   75.0215   17.1595 C.3     536      M_A    0.0000
   3939 H          55.4883   76.9550   17.5318 H       536      M_A    0.0000
   3940 H          56.6395   75.6314   17.5118 H       536      M_A    0.0000
   3941 H          53.5879   75.3822   17.3838 H       536      M_A    0.0000
   3942 H          54.7109   75.0677   16.0732 H       536      M_A    0.0000
   3943 C          54.7097   73.5313   17.6150 C.3     537      M_A    0.0000
   3944 C          54.2903   72.5563   16.5164 C.3     537      M_A    0.0000
   3945 H          55.7416   73.3336   17.9179 H       537      M_A    0.0000
   3946 H          54.0885   73.3856   18.5029 H       537      M_A    0.0000
   3947 H          54.0454   73.1042   15.6024 H       537      M_A    0.0000
   3948 H          55.1210   71.8895   16.2698 H       537      M_A    0.0000
   3949 C          53.0567   71.6919   16.9313 C.3     538      M_A    0.0000
   3950 C          52.4517   70.9406   15.7469 C.3     538      M_A    0.0000
   3951 H          53.3664   70.9845   17.7054 H       538      M_A    0.0000
   3952 H          52.3056   72.3444   17.3846 H       538      M_A    0.0000
   3953 H          52.2657   71.6315   14.9201 H       538      M_A    0.0000
   3954 H          53.1579   70.1919   15.3776 H       538      M_A    0.0000
   3955 C          51.1118   70.2285   16.1194 C.3     539      M_A    0.0000
   3956 C          50.8984   68.9430   15.3223 C.3     539      M_A    0.0000
   3957 H          51.1152   70.0093   17.1906 H       539      M_A    0.0000
   3958 H          50.2840   70.9207   15.9431 H       539      M_A    0.0000
   3959 H          50.8261   69.1710   14.2554 H       539      M_A    0.0000
   3960 H          51.7587   68.2793   15.4439 H       539      M_A    0.0000
   3961 C          49.6078   68.1805   15.7629 C.3     540      M_A    0.0000
   3962 C          49.4130   66.8774   14.9901 C.3     540      M_A    0.0000
   3963 H          49.6686   67.9750   16.8351 H       540      M_A    0.0000
   3964 H          48.7445   68.8355   15.6172 H       540      M_A    0.0000
   3965 H          49.9714   66.9116   14.0507 H       540      M_A    0.0000
   3966 H          49.8147   66.0377   15.5637 H       540      M_A    0.0000
   3967 C          47.9093   66.5966   14.6722 C.3     541      M_A    0.0000
   3968 C          47.7275   65.8325   13.3620 C.3     541      M_A    0.0000
   3969 H          47.4739   66.0304   15.5000 H       541      M_A    0.0000
   3970 H          47.3746   67.5493   14.6279 H       541      M_A    0.0000
   3971 H          48.6541   65.3158   13.0976 H       541      M_A    0.0000
   3972 H          46.9612   65.0617   13.4808 H       541      M_A    0.0000
   3973 C          47.3194   66.7706   12.1812 C.3     542      M_A    0.0000
   3974 C          47.9473   66.3407   10.8567 C.3     542      M_A    0.0000
   3975 H          46.2294   66.7753   12.0953 H       542      M_A    0.0000
   3976 H          47.6196   67.7936   12.4238 H       542      M_A    0.0000
   3977 H          48.8280   65.7202   11.0433 H       542      M_A    0.0000
   3978 H          47.2434   65.7247   10.2905 H       542      M_A    0.0000
   3979 C          48.3685   67.5615    9.9773 C.3     543      M_A    0.0000
   3980 C          48.8342   67.1389    8.5852 C.3     543      M_A    0.0000
   3981 H          47.5206   68.2472    9.8969 H       543      M_A    0.0000
   3982 H          49.1657   68.1067   10.4898 H       543      M_A    0.0000
   3983 H          49.1231   66.0844    8.5906 H       543      M_A    0.0000
   3984 H          48.0131   67.2358    7.8697 H       543      M_A    0.0000
   3985 C          50.0439   67.9899    8.0817 C.3     544      M_A    0.0000
   3986 C          49.6339   69.0057    7.0171 C.3     544      M_A    0.0000
   3987 H          50.4936   68.5031    8.9361 H       544      M_A    0.0000
   3988 H          50.8071   67.3161    7.6829 H       544      M_A    0.0000
   3989 H          48.9611   68.5387    6.2927 H       544      M_A    0.0000
   3990 H          49.0785   69.8275    7.4772 H       544      M_A    0.0000
   3991 C          50.8644   69.5940    6.2550 C.3     545      M_A    0.0000
   3992 C          50.6055   71.0097    5.7429 C.3     545      M_A    0.0000
   3993 H          51.7287   69.5898    6.9247 H       545      M_A    0.0000
   3994 H          51.1110   68.9326    5.4200 H       545      M_A    0.0000
   3995 H          49.9813   70.9756    4.8459 H       545      M_A    0.0000
   3996 H          50.0502   71.5830    6.4902 H       545      M_A    0.0000
   3997 C          51.9289   71.7691    5.4070 C.3     546      M_A    0.0000
   3998 C          51.6986   72.9393    4.4526 C.3     546      M_A    0.0000
   3999 H          52.3758   72.1273    6.3384 H       546      M_A    0.0000
   4000 H          52.6393   71.0626    4.9693 H       546      M_A    0.0000
   4001 H          52.4877   72.9673    3.6963 H       546      M_A    0.0000
   4002 H          50.7548   72.8060    3.9168 H       546      M_A    0.0000
   4003 C          51.6654   74.3127    5.1968 C.3     547      M_A    0.0000
   4004 C          52.2683   75.4394    4.3598 C.3     547      M_A    0.0000
   4005 H          50.6293   74.5495    5.4535 H       547      M_A    0.0000
   4006 H          52.2084   74.2152    6.1408 H       547      M_A    0.0000
   4007 H          51.9439   75.3485    3.3196 H       547      M_A    0.0000
   4008 H          51.9069   76.4072    4.7180 H       547      M_A    0.0000
   4009 C          53.8301   75.4380    4.4023 C.3     548      M_A    0.0000
   4010 C          54.4012   76.8130    4.7437 C.2     548      M_A    0.0000
   4011 H          54.1620   74.7009    5.1385 H       548      M_A    0.0000
   4012 H          54.2087   75.1051    3.4320 H       548      M_A    0.0000
   4013 H          54.0693   77.5501    4.0075 H       548      M_A    0.0000
   4014 H          54.0226   77.1458    5.7139 H       548      M_A    0.0000
   4015 C          75.0919   84.1796   40.4959 C.2     549      M_A    0.0000
   4016 C          75.1758   83.8387   39.0040 C.3     549      M_A    0.0000
   4017 H          75.9849   83.8122   41.0165 H       549      M_A    0.0000
   4018 H          74.2315   83.6725   40.9499 H       549      M_A    0.0000
   4019 H          74.6317   82.9082   38.7996 H       549      M_A    0.0000
   4020 H          74.6909   84.6239   38.4108 H       549      M_A    0.0000
   4021 C          76.6560   83.6766   38.5139 C.3     550      M_A    0.0000
   4022 C          76.8077   82.5488   37.4873 C.3     550      M_A    0.0000
   4023 H          76.9911   84.6272   38.0808 H       550      M_A    0.0000
   4024 H          77.2970   83.4830   39.3830 H       550      M_A    0.0000
   4025 H          76.1251   82.7130   36.6444 H       550      M_A    0.0000
   4026 H          77.8241   82.5502   37.0744 H       550      M_A    0.0000
   4027 C          76.5158   81.1385   38.1065 C.3     551      M_A    0.0000
   4028 C          77.4411   80.0541   37.5435 C.3     551      M_A    0.0000
   4029 H          76.6284   81.2005   39.1960 H       551      M_A    0.0000
   4030 H          75.4682   80.8771   37.9124 H       551      M_A    0.0000
   4031 H          77.6701   80.2641   36.4914 H       551      M_A    0.0000
   4032 H          78.3974   80.0593   38.0811 H       551      M_A    0.0000
   4033 C          76.8107   78.6226   37.6475 C.3     552      M_A    0.0000
   4034 C          77.4590   77.7813   38.7525 C.3     552      M_A    0.0000
   4035 H          75.7342   78.7229   37.8336 H       552      M_A    0.0000
   4036 H          76.9173   78.1181   36.6791 H       552      M_A    0.0000
   4037 H          78.5473   77.9186   38.7402 H       552      M_A    0.0000
   4038 H          77.1099   78.1190   39.7361 H       552      M_A    0.0000
   4039 C          77.1406   76.2539   38.6004 C.3     553      M_A    0.0000
   4040 C          76.5764   75.6470   39.8898 C.3     553      M_A    0.0000
   4041 H          76.4261   76.1217   37.7784 H       553      M_A    0.0000
   4042 H          78.0582   75.7288   38.3077 H       553      M_A    0.0000
   4043 H          76.9679   76.1855   40.7617 H       553      M_A    0.0000
   4044 H          75.4855   75.7606   39.9131 H       553      M_A    0.0000
   4045 C          76.9292   74.1265   40.0346 C.3     554      M_A    0.0000
   4046 C          75.7417   73.2196   39.6936 C.3     554      M_A    0.0000
   4047 H          77.7785   73.8965   39.3793 H       554      M_A    0.0000
   4048 H          77.2639   73.9375   41.0622 H       554      M_A    0.0000
   4049 H          74.7988   73.7481   39.8810 H       554      M_A    0.0000
   4050 H          75.7550   72.9679   38.6259 H       554      M_A    0.0000
   4051 C          75.7503   71.8912   40.5259 C.3     555      M_A    0.0000
   4052 C          75.0165   71.0222   40.1150 C.3     555      M_A    0.0000
   4053 H          76.5727   71.6224   40.4989 H       555      M_A    0.0000
   4054 H          75.5720   72.0626   41.3554 H       555      M_A    0.0000
   4055 H          75.2547   70.7852   39.3173 H       555      M_A    0.0000
   4056 H          75.0823   70.3177   40.6137 H       555      M_A    0.0000
   4057 C          73.8334   71.3820   40.0875 C.3     556      M_A    0.0000
   4058 C          73.2529   70.9739   39.1083 C.3     556      M_A    0.0000
   4059 H          73.4394   71.1005   40.8050 H       556      M_A    0.0000
   4060 H          73.8042   72.2468   40.1109 H       556      M_A    0.0000
   4061 H          73.6742   70.2951   38.7749 H       556      M_A    0.0000
   4062 H          72.4635   70.6938   39.3265 H       556      M_A    0.0000
   4063 C          73.1405   71.8418   38.2342 C.3     557      M_A    0.0000
   4064 C          72.3843   71.5080   37.3515 C.3     557      M_A    0.0000
   4065 H          72.8621   72.5741   38.6024 H       557      M_A    0.0000
   4066 H          73.9236   72.0106   37.9062 H       557      M_A    0.0000
   4067 H          72.5255   70.6815   37.1365 H       557      M_A    0.0000
   4068 H          71.5655   71.5567   37.6279 H       557      M_A    0.0000
   4069 C          72.5060   72.2094   36.3399 C.3     558      M_A    0.0000
   4070 C          71.4723   72.3016   35.7191 C.3     558      M_A    0.0000
   4071 H          72.7811   72.9952   36.5767 H       558      M_A    0.0000
   4072 H          73.1244   71.8704   35.8380 H       558      M_A    0.0000
   4073 H          71.2709   71.5388   35.3630 H       558      M_A    0.0000
   4074 H          70.8225   72.5058   36.2533 H       558      M_A    0.0000
   4075 C          71.5367   73.1542   34.8254 C.3     559      M_A    0.0000
   4076 C          70.5488   73.8505   34.7841 C.3     559      M_A    0.0000
   4077 H          72.2390   73.6430   34.9561 H       559      M_A    0.0000
   4078 H          71.6499   72.7544   34.0660 H       559      M_A    0.0000
   4079 H          70.3088   73.9768   33.9621 H       559      M_A    0.0000
   4080 H          69.8884   73.4523   35.1775 H       559      M_A    0.0000
   4081 C          70.7278   74.9504   35.3207 C.3     560      M_A    0.0000
   4082 C          70.0499   75.8192   34.8225 C.3     560      M_A    0.0000
   4083 H          70.5486   74.8816   36.1648 H       560      M_A    0.0000
   4084 H          71.5662   75.1570   35.2606 H       560      M_A    0.0000
   4085 H          70.2176   75.8772   33.9753 H       560      M_A    0.0000
   4086 H          69.2108   75.6202   34.8968 H       560      M_A    0.0000
   4087 C          70.2455   76.9235   35.3442 C.3     561      M_A    0.0000
   4088 C          69.3327   77.6918   35.1467 C.3     561      M_A    0.0000
   4089 H          70.3621   76.8135   36.1948 H       561      M_A    0.0000
   4090 H          70.9831   77.2525   35.0327 H       561      M_A    0.0000
   4091 H          69.4348   78.0835   34.3815 H       561      M_A    0.0000
   4092 H          68.5841   77.2592   35.1066 H       561      M_A    0.0000
   4093 C          69.2476   78.5552   36.0283 C.3     562      M_A    0.0000
   4094 C          68.2923   79.2794   35.8698 C.3     562      M_A    0.0000
   4095 H          69.1985   78.1634   36.7986 H       562      M_A    0.0000
   4096 H          69.9765   79.0220   36.0329 H       562      M_A    0.0000
   4097 H          68.1752   79.4360   35.0265 H       562      M_A    0.0000
   4098 H          67.5734   78.8886   36.1522 H       562      M_A    0.0000
   4099 C          68.4185   80.3581   36.4618 C.3     563      M_A    0.0000
   4100 C          67.5409   81.1410   36.1799 C.3     563      M_A    0.0000
   4101 H          68.4212   80.2097   37.3146 H       563      M_A    0.0000
   4102 H          69.1912   80.6953   36.2657 H       563      M_A    0.0000
   4103 H          67.3340   81.0662   35.3428 H       563      M_A    0.0000
   4104 H          66.8245   80.9585   36.6303 H       563      M_A    0.0000
   4105 C          67.8670   82.3124   36.4069 C.3     564      M_A    0.0000
   4106 C          66.9569   83.0861   36.2185 C.3     564      M_A    0.0000
   4107 H          68.1424   82.3717   37.2254 H       564      M_A    0.0000
   4108 H          68.5400   82.5173   35.9027 H       564      M_A    0.0000
   4109 H          67.1939   83.8854   36.4515 H       564      M_A    0.0000
   4110 H          66.7655   83.1195   35.3750 H       564      M_A    0.0000
   4111 C          65.9382   82.7735   36.8465 C.3     565      M_A    0.0000
   4112 C          65.0784   83.6210   36.7765 C.3     565      M_A    0.0000
   4113 H          65.6398   82.0218   36.5377 H       565      M_A    0.0000
   4114 H          66.1518   82.6350   37.6738 H       565      M_A    0.0000
   4115 H          64.4993   83.5094   37.4101 H       565      M_A    0.0000
   4116 H          65.4251   84.4057   36.8920 H       565      M_A    0.0000
   4117 C          64.4886   83.6019   35.6894 C.3     566      M_A    0.0000
   4118 C          64.1001   84.6985   35.3594 C.3     566      M_A    0.0000
   4119 H          65.0229   83.2828   35.0877 H       566      M_A    0.0000
   4120 H          63.8205   83.0543   35.7441 H       566      M_A    0.0000
   4121 H          63.2499   84.6760   35.1982 H       566      M_A    0.0000
   4122 H          64.2155   85.2615   36.0067 H       566      M_A    0.0000
   4123 C          64.6854   85.1205   34.3548 C.3     567      M_A    0.0000
   4124 C          64.3807   86.2609   34.0921 C.3     567      M_A    0.0000
   4125 H          65.5393   85.0638   34.4850 H       567      M_A    0.0000
   4126 H          64.5010   84.6025   33.6862 H       567      M_A    0.0000
   4127 H          64.7756   86.8064   34.6360 H       567      M_A    0.0000
   4128 H          64.6517   86.4646   33.2956 H       567      M_A    0.0000
   4129 C          63.1596   86.4469   34.1575 C.3     568      M_A    0.0000
   4130 C          62.6836   86.7462   33.0869 C.2     568      M_A    0.0000
   4131 H          62.7837   85.7278   34.4589 H       568      M_A    0.0000
   4132 H          63.0030   87.0707   34.7368 H       568      M_A    0.0000
   4133 H          63.0596   87.4653   32.7855 H       568      M_A    0.0000
   4134 H          62.8402   86.1223   32.5076 H       568      M_A    0.0000
   4135 C          55.1187   68.6864   36.1688 C.2     569      M_A    0.0000
   4136 C          55.6184   67.5324   35.2926 C.3     569      M_A    0.0000
   4137 H          54.5729   68.2920   37.0349 H       569      M_A    0.0000
   4138 H          54.4104   69.3068   35.6058 H       569      M_A    0.0000
   4139 H          56.5649   67.6775   35.0007 H       569      M_A    0.0000
   4140 H          55.6081   66.6837   35.8232 H       569      M_A    0.0000
   4141 C          54.7993   67.3609   34.1325 C.3     570      M_A    0.0000
   4142 C          53.8426   66.3551   34.3032 C.3     570      M_A    0.0000
   4143 H          54.3496   68.2305   33.9235 H       570      M_A    0.0000
   4144 H          55.3873   67.1463   33.3512 H       570      M_A    0.0000
   4145 H          54.2614   65.4563   34.1663 H       570      M_A    0.0000
   4146 H          53.4930   66.3696   35.2411 H       570      M_A    0.0000
   4147 C          52.7429   66.4939   33.3991 C.3     571      M_A    0.0000
   4148 C          51.7772   65.4991   33.5824 C.3     571      M_A    0.0000
   4149 H          52.3326   67.3982   33.5264 H       571      M_A    0.0000
   4150 H          53.0909   66.4657   32.4609 H       571      M_A    0.0000
   4151 H          51.9876   64.7065   33.0084 H       571      M_A    0.0000
   4152 H          51.7901   65.1788   34.5307 H       571      M_A    0.0000
   4153 C          50.4593   65.9586   33.2688 C.3     572      M_A    0.0000
   4154 C          49.4979   64.9542   33.4201 C.3     572      M_A    0.0000
   4155 H          50.2395   66.7360   33.8599 H       572      M_A    0.0000
   4156 H          50.4524   66.3014   32.3283 H       572      M_A    0.0000
   4157 H          48.7836   65.2554   34.0536 H       572      M_A    0.0000
   4158 H          49.0481   64.7748   32.5440 H       572      M_A    0.0000
   4159 C          50.0615   63.7332   33.9076 C.3     573      M_A    0.0000
   4160 C          49.1368   62.6841   33.9042 C.3     573      M_A    0.0000
   4161 H          50.8529   63.4951   33.3428 H       573      M_A    0.0000
   4162 H          50.4056   63.8845   34.8355 H       573      M_A    0.0000
   4163 H          48.7288   62.5831   34.8128 H       573      M_A    0.0000
   4164 H          48.3869   62.8895   33.2736 H       573      M_A    0.0000
   4165 C          49.7306   61.4393   33.5246 C.3     574      M_A    0.0000
   4166 C          48.8106   60.3861   33.5417 C.3     574      M_A    0.0000
   4167 H          50.1250   61.5357   32.6096 H       574      M_A    0.0000
   4168 H          50.4903   61.2415   34.1457 H       574      M_A    0.0000
   4169 H          48.7731   59.9484   32.6422 H       574      M_A    0.0000
   4170 H          49.1051   59.6836   34.1912 H       574      M_A    0.0000
   4171 C          47.4953   60.8210   33.8980 C.3     575      M_A    0.0000
   4172 C          46.8237   59.8843   34.6902 C.3     575      M_A    0.0000
   4173 H          47.5644   61.6940   34.3830 H       575      M_A    0.0000
   4174 H          46.9759   60.9977   33.0607 H       575      M_A    0.0000
   4175 H          47.4805   59.3649   35.2388 H       575      M_A    0.0000
   4176 H          46.2169   60.3519   35.3346 H       575      M_A    0.0000
   4177 C          46.0497   58.9694   33.9091 C.3     576      M_A    0.0000
   4178 C          46.4454   57.6418   34.1015 C.3     576      M_A    0.0000
   4179 H          45.0838   59.0777   34.1484 H       576      M_A    0.0000
   4180 H          46.1360   59.2167   32.9429 H       576      M_A    0.0000
   4181 H          47.3302   57.4803   33.6619 H       576      M_A    0.0000
   4182 H          46.5718   57.4593   35.0776 H       576      M_A    0.0000
   4183 C          45.4937   56.7112   33.5779 C.3     577      M_A    0.0000
   4184 C          45.8457   56.2529   32.3043 C.3     577      M_A    0.0000
   4185 H          45.4151   55.9395   34.2107 H       577      M_A    0.0000
   4186 H          44.5949   57.1511   33.5481 H       577      M_A    0.0000
   4187 H          46.4901   56.8887   31.8768 H       577      M_A    0.0000
   4188 H          46.3152   55.3716   32.3743 H       577      M_A    0.0000
   4189 C          44.7093   56.1034   31.4486 C.3     578      M_A    0.0000
   4190 C          44.3988   54.7609   31.2096 C.3     578      M_A    0.0000
   4191 H          43.9271   56.5673   31.8670 H       578      M_A    0.0000
   4192 H          44.8927   56.5726   30.5836 H       578      M_A    0.0000
   4193 H          44.8093   54.4620   30.3468 H       578      M_A    0.0000
   4194 H          44.7900   54.1848   31.9288 H       578      M_A    0.0000
   4195 C          42.9879   54.5326   31.1524 C.3     579      M_A    0.0000
   4196 C          42.6643   53.1784   31.2842 C.3     579      M_A    0.0000
   4197 H          42.5455   55.0633   31.8768 H       579      M_A    0.0000
   4198 H          42.6388   54.8859   30.2832 H       579      M_A    0.0000
   4199 H          42.6077   52.7496   30.3814 H       579      M_A    0.0000
   4200 H          43.3870   52.7000   31.7849 H       579      M_A    0.0000
   4201 C          41.4226   52.9817   31.9667 C.3     580      M_A    0.0000
   4202 C          41.2508   51.6578   32.3834 C.3     580      M_A    0.0000
   4203 H          41.3869   53.5972   32.7553 H       580      M_A    0.0000
   4204 H          40.6741   53.2500   31.3585 H       580      M_A    0.0000
   4205 H          40.3755   51.5585   32.8588 H       580      M_A    0.0000
   4206 H          41.2172   51.0495   31.5891 H       580      M_A    0.0000
   4207 C          42.2998   51.2228   33.2532 C.3     581      M_A    0.0000
   4208 C          42.2029   49.8621   33.5613 C.3     581      M_A    0.0000
   4209 H          43.1805   51.4141   32.8173 H       581      M_A    0.0000
   4210 H          42.2700   51.7678   34.0924 H       581      M_A    0.0000
   4211 H          41.7679   49.3694   32.8063 H       581      M_A    0.0000
   4212 H          43.1169   49.4693   33.6722 H       581      M_A    0.0000
   4213 C          41.4527   49.6291   34.7568 C.3     582      M_A    0.0000
   4214 C          40.3698   48.7701   34.5440 C.3     582      M_A    0.0000
   4215 H          42.0633   49.2461   35.4514 H       582      M_A    0.0000
   4216 H          41.1294   50.5078   35.1112 H       582      M_A    0.0000
   4217 H          39.8095   49.1056   33.7853 H       582      M_A    0.0000
   4218 H          40.6985   47.8624   34.2792 H       582      M_A    0.0000
   4219 C          39.5441   48.6409   35.7049 C.3     583      M_A    0.0000
   4220 C          38.2133   48.9873   35.4500 C.3     583      M_A    0.0000
   4221 H          39.5960   47.6971   36.0344 H       583      M_A    0.0000
   4222 H          39.9163   49.2200   36.4317 H       583      M_A    0.0000
   4223 H          37.8813   48.5016   34.6402 H       583      M_A    0.0000
   4224 H          37.6323   48.7031   36.2141 H       583      M_A    0.0000
   4225 C          38.0490   50.3933   35.2440 C.3     584      M_A    0.0000
   4226 C          36.9923   50.9190   35.9943 C.3     584      M_A    0.0000
   4227 H          38.9036   50.8565   35.4832 H       584      M_A    0.0000
   4228 H          37.8944   50.5607   34.2692 H       584      M_A    0.0000
   4229 H          36.1676   50.9796   35.4302 H       584      M_A    0.0000
   4230 H          36.7750   50.3075   36.7565 H       584      M_A    0.0000
   4231 C          37.2908   52.2172   36.5155 C.3     585      M_A    0.0000
   4232 C          37.2590   53.2056   35.5266 C.3     585      M_A    0.0000
   4233 H          36.6331   52.4337   37.2384 H       585      M_A    0.0000
   4234 H          38.1939   52.1920   36.9467 H       585      M_A    0.0000
   4235 H          37.4766   52.8060   34.6349 H       585      M_A    0.0000
   4236 H          36.3368   53.5879   35.4529 H       585      M_A    0.0000
   4237 C          38.1789   54.2683   35.7924 C.3     586      M_A    0.0000
   4238 C          38.5167   54.9786   34.6361 C.3     586      M_A    0.0000
   4239 H          37.7725   54.8854   36.4679 H       586      M_A    0.0000
   4240 H          39.0025   53.8846   36.2125 H       586      M_A    0.0000
   4241 H          37.6912   55.3466   34.2058 H       586      M_A    0.0000
   4242 H          39.0925   55.7630   34.8710 H       586      M_A    0.0000
   4243 C          39.2099   54.1665   33.6842 C.3     587      M_A    0.0000
   4244 C          38.5052   54.0394   32.4829 C.3     587      M_A    0.0000
   4245 H          40.1108   54.5680   33.5128 H       587      M_A    0.0000
   4246 H          39.3694   53.2635   34.0858 H       587      M_A    0.0000
   4247 H          39.0444   53.5149   31.8224 H       587      M_A    0.0000
   4248 H          37.6586   53.5271   32.6341 H       587      M_A    0.0000
   4249 C          38.1799   55.3084   31.9084 C.3     588      M_A    0.0000
   4250 C          37.3482   55.1866   30.7906 C.3     588      M_A    0.0000
   4251 H          37.7373   55.8742   32.6055 H       588      M_A    0.0000
   4252 H          39.0285   55.7752   31.6555 H       588      M_A    0.0000
   4253 H          37.6997   55.7461   30.0386 H       588      M_A    0.0000
   4254 H          37.3448   54.2393   30.4669 H       588      M_A    0.0000
   4255 C          36.0025   55.5830   31.0704 C.3     589      M_A    0.0000
   4256 C          35.0726   54.8918   30.2872 C.3     589      M_A    0.0000
   4257 H          35.8159   55.4282   32.0416 H       589      M_A    0.0000
   4258 H          35.9175   56.5683   30.9148 H       589      M_A    0.0000
   4259 H          35.2151   55.1027   29.3190 H       589      M_A    0.0000
   4260 H          35.2045   53.9047   30.3889 H       589      M_A    0.0000
   4261 C          33.7235   55.2151   30.6358 C.3     590      M_A    0.0000
   4262 C          33.1409   56.1064   29.7291 C.3     590      M_A    0.0000
   4263 H          33.1894   54.3694   30.6771 H       590      M_A    0.0000
   4264 H          33.7132   55.6068   31.5569 H       590      M_A    0.0000
   4265 H          33.6396   56.0883   28.8614 H       590      M_A    0.0000
   4266 H          32.2017   55.8252   29.5268 H       590      M_A    0.0000
   4267 C          33.1239   57.4486   30.2234 C.3     591      M_A    0.0000
   4268 C          31.8346   57.9901   30.2428 C.3     591      M_A    0.0000
   4269 H          33.5140   57.4580   31.1452 H       591      M_A    0.0000
   4270 H          33.7236   58.0105   29.6517 H       591      M_A    0.0000
   4271 H          31.8543   58.9353   29.9139 H       591      M_A    0.0000
   4272 H          31.2392   57.4811   29.6194 H       591      M_A    0.0000
   4273 C          31.2575   57.9692   31.5514 C.3     592      M_A    0.0000
   4274 C          29.8596   57.9474   31.5140 C.3     592      M_A    0.0000
   4275 H          31.6002   57.1670   32.0425 H       592      M_A    0.0000
   4276 H          31.5748   58.7729   32.0569 H       592      M_A    0.0000
   4277 H          29.5048   58.8764   31.3997 H       592      M_A    0.0000
   4278 H          29.5456   57.4204   30.7229 H       592      M_A    0.0000
   4279 C          29.2943   57.3805   32.6994 C.3     593      M_A    0.0000
   4280 C          27.9142   57.5910   32.7815 C.3     593      M_A    0.0000
   4281 H          29.4934   56.3995   32.7146 H       593      M_A    0.0000
   4282 H          29.7503   57.7787   33.4967 H       593      M_A    0.0000
   4283 H          27.4497   57.1190   32.0308 H       593      M_A    0.0000
   4284 H          27.5573   57.2004   33.6313 H       593      M_A    0.0000
   4285 C          27.5738   58.9796   32.7337 C.3     594      M_A    0.0000
   4286 C          26.3089   59.1964   32.1780 C.3     594      M_A    0.0000
   4287 H          27.6095   59.3526   33.6620 H       594      M_A    0.0000
   4288 H          28.2699   59.4643   32.2022 H       594      M_A    0.0000
   4289 H          26.3362   59.0375   31.1901 H       594      M_A    0.0000
   4290 H          25.6513   58.5433   32.5562 H       594      M_A    0.0000
   4291 C          25.8313   60.5232   32.4185 C.3     595      M_A    0.0000
   4292 C          25.4578   61.1741   31.2384 C.3     595      M_A    0.0000
   4293 H          25.0529   60.4771   33.0463 H       595      M_A    0.0000
   4294 H          26.5471   61.0440   32.8860 H       595      M_A    0.0000
   4295 H          25.5406   62.1652   31.3521 H       595      M_A    0.0000
   4296 H          26.0763   60.9175   30.4943 H       595      M_A    0.0000
   4297 C          24.1162   60.8650   30.8501 C.3     596      M_A    0.0000
   4298 C          24.0256   60.4970   29.5039 C.3     596      M_A    0.0000
   4299 H          23.7742   60.1256   31.4319 H       596      M_A    0.0000
   4300 H          23.5371   61.6620   31.0278 H       596      M_A    0.0000
   4301 H          23.1697   60.8375   29.1119 H       596      M_A    0.0000
   4302 H          24.7686   60.9185   28.9820 H       596      M_A    0.0000
   4303 C          24.0828   59.0790   29.3245 C.3     597      M_A    0.0000
   4304 C          22.8439   58.5401   28.9629 C.3     597      M_A    0.0000
   4305 H          24.7659   58.8698   28.6233 H       597      M_A    0.0000
   4306 H          24.4050   58.6590   30.1741 H       597      M_A    0.0000
   4307 H          22.2554   59.2561   28.5847 H       597      M_A    0.0000
   4308 H          22.9644   57.8563   28.2418 H       597      M_A    0.0000
   4309 C          22.1744   57.9298   30.0699 C.3     598      M_A    0.0000
   4310 C          22.2064   56.5331   30.0042 C.3     598      M_A    0.0000
   4311 H          22.6025   58.2434   30.9187 H       598      M_A    0.0000
   4312 H          21.2264   58.2507   30.0904 H       598      M_A    0.0000
   4313 H          21.3559   56.1887   29.6041 H       598      M_A    0.0000
   4314 H          22.9486   56.2348   29.4023 H       598      M_A    0.0000
   4315 C          22.3868   55.9339   31.2905 C.3     599      M_A    0.0000
   4316 C          23.7050   55.5170   31.5008 C.3     599      M_A    0.0000
   4317 H          22.1190   56.5936   31.9942 H       599      M_A    0.0000
   4318 H          21.7630   55.1554   31.3740 H       599      M_A    0.0000
   4319 H          23.7932   54.5411   31.2958 H       599      M_A    0.0000
   4320 H          24.3212   55.9988   30.8762 H       599      M_A    0.0000
   4321 C          24.1384   55.7468   32.8445 C.3     600      M_A    0.0000
   4322 C          24.1323   54.5769   33.6108 C.3     600      M_A    0.0000
   4323 H          25.0592   56.1388   32.8240 H       600      M_A    0.0000
   4324 H          23.5426   56.4341   33.2626 H       600      M_A    0.0000
   4325 H          23.2006   54.2176   33.6813 H       600      M_A    0.0000
   4326 H          24.6800   53.8695   33.1617 H       600      M_A    0.0000
   4327 C          24.6453   54.7896   34.9291 C.3     601      M_A    0.0000
   4328 C          23.6300   54.8570   35.8885 C.3     601      M_A    0.0000
   4329 H          25.2796   54.0480   35.1520 H       601      M_A    0.0000
   4330 H          25.1795   55.6362   34.9347 H       601      M_A    0.0000
   4331 H          23.2510   53.9449   36.0518 H       601      M_A    0.0000
   4332 H          24.0033   55.1737   36.7616 H       601      M_A    0.0000
   4333 C          22.5698   55.7331   35.4953 C.3     602      M_A    0.0000
   4334 C          21.3108   55.2269   35.8336 C.2     602      M_A    0.0000
   4335 H          22.7096   56.6241   35.9298 H       602      M_A    0.0000
   4336 H          22.6251   55.8834   34.5071 H       602      M_A    0.0000
   4337 H          21.1710   54.3360   35.3991 H       602      M_A    0.0000
   4338 H          21.2555   55.0766   36.8218 H       602      M_A    0.0000
   4339 C          67.1834   72.1804   26.7842 C.2     603      M_A    0.0000
   4340 C          66.2825   71.4659   25.7390 C.3     603      M_A    0.0000
   4341 H          68.0605   71.5426   27.0311 H       603      M_A    0.0000
   4342 H          66.6216   72.3317   27.7320 H       603      M_A    0.0000
   4343 H          65.8180   72.2148   25.0606 H       603      M_A    0.0000
   4344 H          66.8979   70.7948   25.1004 H       603      M_A    0.0000
   4345 C          65.1311   70.6093   26.4218 C.3     604      M_A    0.0000
   4346 C          65.6359   69.2202   26.9012 C.3     604      M_A    0.0000
   4347 H          64.7191   71.1828   27.2811 H       604      M_A    0.0000
   4348 H          64.2993   70.4825   25.6943 H       604      M_A    0.0000
   4349 H          65.9816   68.6191   26.0316 H       604      M_A    0.0000
   4350 H          66.5138   69.3445   27.5728 H       604      M_A    0.0000
   4351 C          64.5117   68.4044   27.6734 C.3     605      M_A    0.0000
   4352 C          64.9819   66.9746   28.0594 C.3     605      M_A    0.0000
   4353 H          64.2215   68.9698   28.5862 H       605      M_A    0.0000
   4354 H          63.6053   68.3474   27.0314 H       605      M_A    0.0000
   4355 H          64.7155   66.2552   27.2542 H       605      M_A    0.0000
   4356 H          66.0896   66.9504   28.1556 H       605      M_A    0.0000
   4357 C          64.3381   66.4769   29.4246 C.3     606      M_A    0.0000
   4358 C          64.8038   65.0448   29.8076 C.3     606      M_A    0.0000
   4359 H          64.6081   67.1941   30.2307 H       606      M_A    0.0000
   4360 H          63.2304   66.5051   29.3298 H       606      M_A    0.0000
   4361 H          65.9146   64.9893   29.7966 H       606      M_A    0.0000
   4362 H          64.4822   64.8039   30.8447 H       606      M_A    0.0000
   4363 C          64.2259   63.9399   28.8223 C.3     607      M_A    0.0000
   4364 C          64.8176   62.5312   29.1051 C.3     607      M_A    0.0000
   4365 H          63.1184   63.9151   28.9214 H       607      M_A    0.0000
   4366 H          64.4462   64.2428   27.7751 H       607      M_A    0.0000
   4367 H          64.2045   61.7519   28.6015 H       607      M_A    0.0000
   4368 H          65.8425   62.4557   28.6796 H       607      M_A    0.0000
   4369 C          64.8831   62.2064   30.6594 C.3     608      M_A    0.0000
   4370 C          63.8303   61.1456   31.0842 C.3     608      M_A    0.0000
   4371 H          65.9065   61.8488   30.9081 H       608      M_A    0.0000
   4372 H          64.7267   63.1485   31.2295 H       608      M_A    0.0000
   4373 H          63.4965   60.5632   30.1974 H       608      M_A    0.0000
   4374 H          64.2859   60.4178   31.7911 H       608      M_A    0.0000
   4375 C          62.5581   61.8022   31.7742 C.3     609      M_A    0.0000
   4376 C          62.1953   61.1122   33.1183 C.3     609      M_A    0.0000
   4377 H          62.7595   62.8830   31.9426 H       609      M_A    0.0000
   4378 H          61.6984   61.7433   31.0711 H       609      M_A    0.0000
   4379 H          61.0930   60.9866   33.1971 H       609      M_A    0.0000
   4380 H          62.6364   60.0919   33.1544 H       609      M_A    0.0000
   4381 C          62.7081   61.9368   34.3764 C.3     610      M_A    0.0000
   4382 C          61.5390   62.4349   35.2705 C.3     610      M_A    0.0000
   4383 H          63.3954   61.2947   34.9700 H       610      M_A    0.0000
   4384 H          63.3089   62.8014   34.0177 H       610      M_A    0.0000
   4385 H          60.5911   62.4439   34.6887 H       610      M_A    0.0000
   4386 H          61.3848   61.7353   36.1213 H       610      M_A    0.0000
   4387 C          61.8002   63.8927   35.8468 C.3     611      M_A    0.0000
   4388 C          61.1623   64.9989   34.9617 C.3     611      M_A    0.0000
   4389 H          61.3920   63.9482   36.8799 H       611      M_A    0.0000
   4390 H          62.8976   64.0548   35.9279 H       611      M_A    0.0000
   4391 H          60.3606   64.5633   34.3256 H       611      M_A    0.0000
   4392 H          60.6787   65.7686   35.6026 H       611      M_A    0.0000
   4393 C          62.2302   65.7105   34.0240 C.3     612      M_A    0.0000
   4394 C          62.2435   67.2529   34.2116 C.2     612      M_A    0.0000
   4395 H          63.2364   65.2909   34.2440 H       612      M_A    0.0000
   4396 H          62.0029   65.4570   32.9652 H       612      M_A    0.0000
   4397 H          61.2373   67.6725   33.9917 H       612      M_A    0.0000
   4398 H          62.4708   67.5063   35.2704 H       612      M_A    0.0000
   4399 C          50.7578   12.8298   16.1706 C.2     613      M_A    0.0000
   4400 C          49.4113   12.1819   16.5115 C.3     613      M_A    0.0000
   4401 H          51.5438   12.0654   16.1310 H       613      M_A    0.0000
   4402 H          51.0453   13.5368   16.9586 H       613      M_A    0.0000
   4403 H          48.6640   12.9566   16.7233 H       613      M_A    0.0000
   4404 H          49.0393   11.6123   15.6508 H       613      M_A    0.0000
   4405 C          49.5095   11.2230   17.7478 C.3     614      M_A    0.0000
   4406 C          48.9155   11.8470   19.0154 C.3     614      M_A    0.0000
   4407 H          48.9901   10.2862   17.5108 H       614      M_A    0.0000
   4408 H          50.5631   10.9660   17.9131 H       614      M_A    0.0000
   4409 H          48.8712   12.9383   18.9123 H       614      M_A    0.0000
   4410 H          47.8839   11.5017   19.1568 H       614      M_A    0.0000
   4411 C          49.7466   11.4940   20.2969 C.3     615      M_A    0.0000
   4412 C          49.3055   12.3085   21.5179 C.3     615      M_A    0.0000
   4413 H          49.6415   10.4215   20.5022 H       615      M_A    0.0000
   4414 H          50.8090   11.6724   20.0896 H       615      M_A    0.0000
   4415 H          48.2751   12.0491   21.7909 H       615      M_A    0.0000
   4416 H          49.9328   12.0595   22.3828 H       615      M_A    0.0000
   4417 C          49.3869   13.8531   21.2627 C.3     616      M_A    0.0000
   4418 C          49.1362   14.6665   22.5373 C.3     616      M_A    0.0000
   4419 H          50.3758   14.0921   20.8523 H       616      M_A    0.0000
   4420 H          48.6529   14.1236   20.4935 H       616      M_A    0.0000
   4421 H          48.0634   14.8650   22.6520 H       616      M_A    0.0000
   4422 H          49.4460   14.0904   23.4181 H       616      M_A    0.0000
   4423 C          49.9050   16.0326   22.5311 C.3     617      M_A    0.0000
   4424 C          48.9928   17.2108   22.1722 C.3     617      M_A    0.0000
   4425 H          50.3526   16.1910   23.5201 H       617      M_A    0.0000
   4426 H          50.7349   15.9681   21.8164 H       617      M_A    0.0000
   4427 H          48.6086   17.0918   21.1516 H       617      M_A    0.0000
   4428 H          48.1205   17.2274   22.8373 H       617      M_A    0.0000
   4429 C          49.7334   18.5886   22.2759 C.3     618      M_A    0.0000
   4430 C          50.1503   19.1286   20.9034 C.3     618      M_A    0.0000
   4431 H          49.0744   19.3073   22.7786 H       618      M_A    0.0000
   4432 H          50.6157   18.4685   22.9167 H       618      M_A    0.0000
   4433 H          49.5532   18.6537   20.1151 H       618      M_A    0.0000
   4434 H          49.9486   20.2055   20.8458 H       618      M_A    0.0000
   4435 C          51.6693   18.8823   20.6044 C.3     619      M_A    0.0000
   4436 C          52.5042   20.1595   20.7485 C.3     619      M_A    0.0000
   4437 H          52.0433   18.1094   21.2873 H       619      M_A    0.0000
   4438 H          51.7691   18.4803   19.5886 H       619      M_A    0.0000
   4439 H          53.2284   20.2301   19.9275 H       619      M_A    0.0000
   4440 H          51.8571   21.0423   20.6744 H       619      M_A    0.0000
   4441 C          53.2779   20.2130   22.1108 C.3     620      M_A    0.0000
   4442 C          54.1250   21.4829   22.2482 C.3     620      M_A    0.0000
   4443 H          52.5527   20.1540   22.9319 H       620      M_A    0.0000
   4444 H          53.9164   19.3245   22.1900 H       620      M_A    0.0000
   4445 H          54.5046   21.5727   23.2735 H       620      M_A    0.0000
   4446 H          55.0020   21.4229   21.5917 H       620      M_A    0.0000
   4447 C          53.3161   22.7780   21.8935 C.3     621      M_A    0.0000
   4448 C          54.1088   24.0565   22.1867 C.3     621      M_A    0.0000
   4449 H          53.0388   22.7423   20.8327 H       621      M_A    0.0000
   4450 H          52.3792   22.7771   22.4642 H       621      M_A    0.0000
   4451 H          54.6959   23.9328   23.1052 H       621      M_A    0.0000
   4452 H          54.8252   24.2486   21.3784 H       621      M_A    0.0000
   4453 C          53.1791   25.3086   22.3462 C.3     622      M_A    0.0000
   4454 C          53.9010   26.4876   23.0078 C.3     622      M_A    0.0000
   4455 H          52.8085   25.6021   21.3562 H       622      M_A    0.0000
   4456 H          52.3014   25.0240   22.9395 H       622      M_A    0.0000
   4457 H          54.5292   26.1291   23.8327 H       622      M_A    0.0000
   4458 H          54.5728   26.9699   22.2869 H       622      M_A    0.0000
   4459 C          52.9017   27.5602   23.5631 C.3     623      M_A    0.0000
   4460 C          53.4219   28.9899   23.3776 C.3     623      M_A    0.0000
   4461 H          51.9371   27.4419   23.0539 H       623      M_A    0.0000
   4462 H          52.7231   27.3599   24.6268 H       623      M_A    0.0000
   4463 H          54.4980   29.0288   23.5877 H       623      M_A    0.0000
   4464 H          53.2930   29.3047   22.3346 H       623      M_A    0.0000
   4465 C          52.6877   30.0148   24.3092 C.3     624      M_A    0.0000
   4466 C          52.9936   31.4678   23.9292 C.3     624      M_A    0.0000
   4467 H          51.6075   29.8312   24.2549 H       624      M_A    0.0000
   4468 H          52.9875   29.8265   25.3476 H       624      M_A    0.0000
   4469 H          54.0782   31.6195   23.8653 H       624      M_A    0.0000
   4470 H          52.5853   31.6906   22.9356 H       624      M_A    0.0000
   4471 C          52.4004   32.4890   24.9600 C.3     625      M_A    0.0000
   4472 C          52.9130   33.9143   24.7263 C.3     625      M_A    0.0000
   4473 H          51.3058   32.4667   24.8900 H       625      M_A    0.0000
   4474 H          52.6580   32.1581   25.9738 H       625      M_A    0.0000
   4475 H          53.9950   33.9001   24.5459 H       625      M_A    0.0000
   4476 H          52.4493   34.3381   23.8269 H       625      M_A    0.0000
   4477 C          52.6156   34.8593   25.9412 C.3     626      M_A    0.0000
   4478 C          52.3950   36.3124   25.5065 C.3     626      M_A    0.0000
   4479 H          51.7301   34.4865   26.4707 H       626      M_A    0.0000
   4480 H          53.4529   34.8011   26.6477 H       626      M_A    0.0000
   4481 H          53.3086   36.8615   25.4450 H       626      M_A    0.0000
   4482 H          51.9739   36.3070   24.5253 H       626      M_A    0.0000
   4483 C          51.4428   37.0457   26.4463 C.3     627      M_A    0.0000
   4484 C          50.4502   37.8792   25.7080 C.3     627      M_A    0.0000
   4485 H          50.9379   36.3274   27.0539 H       627      M_A    0.0000
   4486 H          52.0155   37.6580   27.1074 H       627      M_A    0.0000
   4487 H          50.8666   38.2103   24.7823 H       627      M_A    0.0000
   4488 H          49.5898   37.2952   25.4658 H       627      M_A    0.0000
   4489 C          50.0069   39.0979   26.5117 C.3     628      M_A    0.0000
   4490 C          48.8317   38.8042   27.3822 C.3     628      M_A    0.0000
   4491 H          50.8274   39.4354   27.1059 H       628      M_A    0.0000
   4492 H          49.7724   39.8897   25.8350 H       628      M_A    0.0000
   4493 H          47.9313   39.1109   26.8974 H       628      M_A    0.0000
   4494 H          48.7498   37.7520   27.5439 H       628      M_A    0.0000
   4495 C          48.9248   39.5038   28.7348 C.3     629      M_A    0.0000
   4496 C          47.7663   40.4099   28.9836 C.3     629      M_A    0.0000
   4497 H          48.9819   38.7634   29.5020 H       629      M_A    0.0000
   4498 H          49.8373   40.0569   28.7741 H       629      M_A    0.0000
   4499 H          47.6880   41.1282   28.1975 H       629      M_A    0.0000
   4500 H          46.8568   39.8507   28.9797 H       629      M_A    0.0000
   4501 C          47.8844   41.1475   30.3138 C.3     630      M_A    0.0000
   4502 C          46.7810   42.1310   30.5148 C.3     630      M_A    0.0000
   4503 H          47.8851   40.4313   31.1057 H       630      M_A    0.0000
   4504 H          48.8287   41.6445   30.3492 H       630      M_A    0.0000
   4505 H          46.7040   42.7734   29.6654 H       630      M_A    0.0000
   4506 H          45.8468   41.6210   30.5991 H       630      M_A    0.0000
   4507 C          46.9886   42.9863   31.7610 C.3     631      M_A    0.0000
   4508 C          45.7573   43.0731   32.5986 C.3     631      M_A    0.0000
   4509 H          47.7912   42.5738   32.3317 H       631      M_A    0.0000
   4510 H          47.2966   43.9634   31.4605 H       631      M_A    0.0000
   4511 H          45.2004   43.9470   32.3413 H       631      M_A    0.0000
   4512 H          45.1226   42.2368   32.4042 H       631      M_A    0.0000
   4513 C          46.0745   43.1136   34.0904 C.3     632      M_A    0.0000
   4514 C          44.9507   43.6789   34.8921 C.3     632      M_A    0.0000
   4515 H          46.2987   42.1236   34.4215 H       632      M_A    0.0000
   4516 H          46.9582   43.6941   34.2387 H       632      M_A    0.0000
   4517 H          45.1230   44.7149   35.0843 H       632      M_A    0.0000
   4518 H          44.0393   43.6171   34.3393 H       632      M_A    0.0000
   4519 C          44.7687   42.9554   36.2229 C.3     633      M_A    0.0000
   4520 C          43.5583   43.4221   36.9592 C.3     633      M_A    0.0000
   4521 H          44.7028   41.9059   36.0379 H       633      M_A    0.0000
   4522 H          45.6412   43.1073   36.8194 H       633      M_A    0.0000
   4523 H          43.4654   42.8944   37.8827 H       633      M_A    0.0000
   4524 H          43.6558   44.4564   37.2056 H       633      M_A    0.0000
   4525 C          42.2791   43.2276   36.1508 C.3     634      M_A    0.0000
   4526 C          41.0534   43.4787   36.9630 C.3     634      M_A    0.0000
   4527 H          42.3010   43.8836   35.3087 H       634      M_A    0.0000
   4528 H          42.2644   42.2325   35.7640 H       634      M_A    0.0000
   4529 H          40.9345   42.7095   37.6939 H       634      M_A    0.0000
   4530 H          41.1507   44.3976   37.4980 H       634      M_A    0.0000
   4531 C          39.7936   43.5404   36.1047 C.3     635      M_A    0.0000
   4532 C          38.5819   43.8857   36.9031 C.3     635      M_A    0.0000
   4533 H          39.9395   44.2611   35.3305 H       635      M_A    0.0000
   4534 H          39.6584   42.5968   35.6236 H       635      M_A    0.0000
   4535 H          38.3540   43.0949   37.5833 H       635      M_A    0.0000
   4536 H          38.7687   44.7547   37.4947 H       635      M_A    0.0000
   4537 C          37.3630   44.1432   36.0223 C.3     636      M_A    0.0000
   4538 C          36.1374   44.4298   36.8228 C.3     636      M_A    0.0000
   4539 H          37.5754   44.9629   35.3719 H       636      M_A    0.0000
   4540 H          37.2024   43.2911   35.3993 H       636      M_A    0.0000
   4541 H          36.2249   45.3818   37.2981 H       636      M_A    0.0000
   4542 H          35.2856   44.4845   36.1813 H       636      M_A    0.0000
   4543 C          35.8824   43.3692   37.8895 C.3     637      M_A    0.0000
   4544 C          35.5554   43.9684   39.2157 C.3     637      M_A    0.0000
   4545 H          35.0831   42.7399   37.5650 H       637      M_A    0.0000
   4546 H          36.7473   42.7485   37.9714 H       637      M_A    0.0000
   4547 H          36.4484   44.3012   39.6973 H       637      M_A    0.0000
   4548 H          34.9378   44.8297   39.0861 H       637      M_A    0.0000
   4549 C          34.8391   42.9833   40.1345 C.3     638      M_A    0.0000
   4550 C          33.4264   42.7467   39.7181 C.3     638      M_A    0.0000
   4551 H          35.3786   42.0620   40.1389 H       638      M_A    0.0000
   4552 H          34.8682   43.3605   41.1330 H       638      M_A    0.0000
   4553 H          32.7718   43.3934   40.2599 H       638      M_A    0.0000
   4554 H          33.3049   42.9837   38.6842 H       638      M_A    0.0000
   4555 C          32.9905   41.3025   39.9461 C.3     639      M_A    0.0000
   4556 C          31.5274   41.1123   39.7269 C.3     639      M_A    0.0000
   4557 H          33.5446   40.6682   39.2899 H       639      M_A    0.0000
   4558 H          33.2517   41.0172   40.9413 H       639      M_A    0.0000
   4559 H          31.2865   41.2779   38.6999 H       639      M_A    0.0000
   4560 H          31.2521   40.1045   39.9477 H       639      M_A    0.0000
   4561 C          30.6869   42.0513   40.5868 C.3     640      M_A    0.0000
   4562 C          29.2238   41.8170   40.4156 C.3     640      M_A    0.0000
   4563 H          30.9616   41.9192   41.6101 H       640      M_A    0.0000
   4564 H          30.9285   43.0597   40.3323 H       640      M_A    0.0000
   4565 H          28.8834   42.2724   39.5118 H       640      M_A    0.0000
   4566 H          29.0287   40.7713   40.3243 H       640      M_A    0.0000
   4567 C          28.4094   42.3693   41.5815 C.3     641      M_A    0.0000
   4568 C          26.9736   42.5633   41.2266 C.3     641      M_A    0.0000
   4569 H          28.4948   41.6996   42.4087 H       641      M_A    0.0000
   4570 H          28.8382   43.2965   41.8922 H       641      M_A    0.0000
   4571 H          26.7987   43.5800   40.9514 H       641      M_A    0.0000
   4572 H          26.7231   41.9681   40.3763 H       641      M_A    0.0000
   4573 C          26.0393   42.1972   42.3758 C.3     642      M_A    0.0000
   4574 C          24.6028   42.2642   41.9798 C.3     642      M_A    0.0000
   4575 H          26.2800   41.2138   42.7151 H       642      M_A    0.0000
   4576 H          26.2248   42.8577   43.1939 H       642      M_A    0.0000
   4577 H          24.2698   43.2787   41.9805 H       642      M_A    0.0000
   4578 H          24.4806   41.9021   40.9828 H       642      M_A    0.0000
   4579 C          23.7077   41.4522   42.9111 C.3     643      M_A    0.0000
   4580 C          22.2586   41.7109   42.6700 C.3     643      M_A    0.0000
   4581 H          23.9218   40.4149   42.7762 H       643      M_A    0.0000
   4582 H          23.9586   41.6882   43.9217 H       643      M_A    0.0000
   4583 H          21.6652   41.0445   43.2564 H       643      M_A    0.0000
   4584 H          22.0066   42.7006   42.9816 H       643      M_A    0.0000
   4585 C          21.8781   41.5457   41.2018 C.3     644      M_A    0.0000
   4586 C          20.6114   42.2566   40.8626 C.3     644      M_A    0.0000
   4587 H          22.6772   41.9122   40.5959 H       644      M_A    0.0000
   4588 H          21.7825   40.5043   40.9862 H       644      M_A    0.0000
   4589 H          19.7758   41.7286   41.2663 H       644      M_A    0.0000
   4590 H          20.6055   43.2268   41.3083 H       644      M_A    0.0000
   4591 C          20.4177   42.4061   39.3566 C.3     645      M_A    0.0000
   4592 C          18.9768   42.4255   38.9712 C.3     645      M_A    0.0000
   4593 H          20.8946   43.3059   39.0359 H       645      M_A    0.0000
   4594 H          20.9177   41.6016   38.8638 H       645      M_A    0.0000
   4595 H          18.6077   41.4275   38.8841 H       645      M_A    0.0000
   4596 H          18.4002   42.9002   39.7341 H       645      M_A    0.0000
   4597 C          18.7411   43.1539   37.6515 C.3     646      M_A    0.0000
   4598 C          17.8082   42.4118   36.7550 C.3     646      M_A    0.0000
   4599 H          18.3526   44.1264   37.8598 H       646      M_A    0.0000
   4600 H          19.6806   43.2969   37.1647 H       646      M_A    0.0000
   4601 H          17.7902   42.8658   35.7887 H       646      M_A    0.0000
   4602 H          18.1521   41.4104   36.6169 H       646      M_A    0.0000
   4603 C          16.3860   42.3718   37.3059 C.3     647      M_A    0.0000
   4604 C          15.5885   41.2498   36.7313 C.3     647      M_A    0.0000
   4605 H          16.4312   42.2820   38.3689 H       647      M_A    0.0000
   4606 H          15.9096   43.3041   37.0970 H       647      M_A    0.0000
   4607 H          14.5704   41.3266   37.0439 H       647      M_A    0.0000
   4608 H          15.5873   41.3098   35.6653 H       647      M_A    0.0000
   4609 C          16.1286   39.8846   37.1464 C.3     648      M_A    0.0000
   4610 C          15.2283   38.7703   36.7307 C.3     648      M_A    0.0000
   4611 H          17.0971   39.7525   36.7167 H       648      M_A    0.0000
   4612 H          16.2592   39.8738   38.2060 H       648      M_A    0.0000
   4613 H          14.2445   39.1430   36.5485 H       648      M_A    0.0000
   4614 H          15.5705   38.3463   35.8124 H       648      M_A    0.0000
   4615 C          15.1495   37.6676   37.7822 C.3     649      M_A    0.0000
   4616 C          14.2730   36.5393   37.3536 C.3     649      M_A    0.0000
   4617 H          16.1359   37.3100   37.9804 H       649      M_A    0.0000
   4618 H          14.7864   38.0872   38.6944 H       649      M_A    0.0000
   4619 H          13.2679   36.7172   37.6669 H       649      M_A    0.0000
   4620 H          14.2550   36.4740   36.2881 H       649      M_A    0.0000
   4621 C          14.7352   35.2004   37.9206 C.3     650      M_A    0.0000
   4622 C          13.5914   34.3345   38.3293 C.3     650      M_A    0.0000
   4623 H          15.3277   34.7016   37.1857 H       650      M_A    0.0000
   4624 H          15.3734   35.3828   38.7569 H       650      M_A    0.0000
   4625 H          12.9507   34.8658   38.9981 H       650      M_A    0.0000
   4626 H          13.0014   34.0805   37.4764 H       650      M_A    0.0000
   4627 C          14.0534   33.0487   39.0083 C.3     651      M_A    0.0000
   4628 C          12.9299   32.0942   39.2355 C.3     651      M_A    0.0000
   4629 H          14.8056   32.5915   38.4040 H       651      M_A    0.0000
   4630 H          14.5162   33.2974   39.9378 H       651      M_A    0.0000
   4631 H          13.0792   31.5640   40.1502 H       651      M_A    0.0000
   4632 H          12.0108   32.6281   39.3371 H       651      M_A    0.0000
   4633 C          12.7896   31.0854   38.0996 C.3     652      M_A    0.0000
   4634 C          11.8292   29.9926   38.4294 C.3     652      M_A    0.0000
   4635 H          12.4709   31.5997   37.2199 H       652      M_A    0.0000
   4636 H          13.7511   30.6747   37.8833 H       652      M_A    0.0000
   4637 H          10.9023   30.4072   38.7595 H       652      M_A    0.0000
   4638 H          11.6143   29.4181   37.5556 H       652      M_A    0.0000
   4639 C          12.3641   29.0600   39.5119 C.3     653      M_A    0.0000
   4640 C          11.5351   27.8284   39.6572 C.3     653      M_A    0.0000
   4641 H          13.3711   28.7974   39.2732 H       653      M_A    0.0000
   4642 H          12.3969   29.5906   40.4379 H       653      M_A    0.0000
   4643 H          10.7862   27.9772   40.4035 H       653      M_A    0.0000
   4644 H          11.0215   27.6230   38.7440 H       653      M_A    0.0000
   4645 C          12.3714   26.6099   40.0359 C.3     654      M_A    0.0000
   4646 C          12.1987   25.4842   39.0725 C.3     654      M_A    0.0000
   4647 H          13.3985   26.8981   40.0817 H       654      M_A    0.0000
   4648 H          12.0969   26.2960   41.0188 H       654      M_A    0.0000
   4649 H          12.2171   25.8534   38.0709 H       654      M_A    0.0000
   4650 H          13.0120   24.7982   39.1614 H       654      M_A    0.0000
   4651 C          10.8917   24.7288   39.2942 C.3     655      M_A    0.0000
   4652 C          11.1195   23.3060   39.6799 C.3     655      M_A    0.0000
   4653 H          10.3300   25.2283   40.0525 H       655      M_A    0.0000
   4654 H          10.3104   24.7772   38.4000 H       655      M_A    0.0000
   4655 H          11.3320   22.7211   38.8123 H       655      M_A    0.0000
   4656 H          11.9734   23.2315   40.3165 H       655      M_A    0.0000
   4657 C           9.9165   22.7019   40.3979 C.3     656      M_A    0.0000
   4658 C          10.3190   21.8235   41.5344 C.3     656      M_A    0.0000
   4659 H           9.2927   23.4936   40.7501 H       656      M_A    0.0000
   4660 H           9.3382   22.1464   39.6929 H       656      M_A    0.0000
   4661 H          10.5782   22.4180   42.3825 H       656      M_A    0.0000
   4662 H           9.4979   21.2086   41.8304 H       656      M_A    0.0000
   4663 C          11.5024   20.9275   41.1817 C.3     657      M_A    0.0000
   4664 C          11.1164   19.4893   41.0948 C.3     657      M_A    0.0000
   4665 H          11.9152   21.2525   40.2522 H       657      M_A    0.0000
   4666 H          12.2645   21.0582   41.9180 H       657      M_A    0.0000
   4667 H          10.3415   19.3612   40.3715 H       657      M_A    0.0000
   4668 H          11.9467   18.9069   40.7611 H       657      M_A    0.0000
   4669 C          10.6353   18.9378   42.4336 C.3     658      M_A    0.0000
   4670 C          11.2151   17.5966   42.7337 C.3     658      M_A    0.0000
   4671 H          10.8951   19.6297   43.2041 H       658      M_A    0.0000
   4672 H           9.5692   18.8809   42.4193 H       658      M_A    0.0000
   4673 H          12.2329   17.6980   43.0401 H       658      M_A    0.0000
   4674 H          10.6930   17.1461   43.5488 H       658      M_A    0.0000
   4675 C          11.1544   16.6584   41.5321 C.3     659      M_A    0.0000
   4676 C          12.2358   15.6314   41.5616 C.3     659      M_A    0.0000
   4677 H          10.1985   16.1831   41.5146 H       659      M_A    0.0000
   4678 H          11.2247   17.2386   40.6385 H       659      M_A    0.0000
   4679 H          13.1475   16.0491   41.1950 H       659      M_A    0.0000
   4680 H          12.4217   15.3242   42.5671 H       659      M_A    0.0000
   4681 C          11.8882   14.4017   40.7280 C.3     660      M_A    0.0000
   4682 C          12.7637   14.2663   39.5280 C.3     660      M_A    0.0000
   4683 H          11.9736   13.5334   41.3434 H       660      M_A    0.0000
   4684 H          10.8651   14.4663   40.4294 H       660      M_A    0.0000
   4685 H          13.7547   14.0030   39.8257 H       660      M_A    0.0000
   4686 H          12.4104   13.4748   38.9045 H       660      M_A    0.0000
   4687 C          12.8218   15.5507   38.7067 C.3     661      M_A    0.0000
   4688 C          11.8147   15.5642   37.6064 C.3     661      M_A    0.0000
   4689 H          12.6645   16.3826   39.3572 H       661      M_A    0.0000
   4690 H          13.8050   15.6577   38.3043 H       661      M_A    0.0000
   4691 H          12.2977   15.4146   36.6661 H       661      M_A    0.0000
   4692 H          11.1269   14.7568   37.7297 H       661      M_A    0.0000
   4693 C          11.0323   16.8730   37.5547 C.3     662      M_A    0.0000
   4694 C          11.2446   17.6083   36.2743 C.2     662      M_A    0.0000
   4695 H           9.9946   16.6591   37.6864 H       662      M_A    0.0000
   4696 H          11.3268   17.4828   38.3802 H       662      M_A    0.0000
   4697 H          12.2823   17.8222   36.1427 H       662      M_A    0.0000
   4698 H          10.9501   16.9985   35.4488 H       662      M_A    0.0000
   4699 C          74.3926   21.9496   13.3754 C.2     663      M_A    0.0000
   4700 C          74.0614   20.9935   12.3869 C.3     663      M_A    0.0000
   4701 H          74.3462   21.5285   14.2950 H       663      M_A    0.0000
   4702 H          73.7187   22.7052   13.3672 H       663      M_A    0.0000
   4703 H          73.6495   21.4527   11.5840 H       663      M_A    0.0000
   4704 H          74.8991   20.5293   12.0583 H       663      M_A    0.0000
   4705 C          73.1370   19.9947   12.8780 C.3     664      M_A    0.0000
   4706 C          71.8490   20.5282   13.1180 C.3     664      M_A    0.0000
   4707 H          73.0808   19.2421   12.2030 H       664      M_A    0.0000
   4708 H          73.5111   19.5943   13.7294 H       664      M_A    0.0000
   4709 H          71.9035   21.2723   13.8024 H       664      M_A    0.0000
   4710 H          71.4801   20.9398   12.2697 H       664      M_A    0.0000
   4711 C          70.9199   19.5256   13.5921 C.3     665      M_A    0.0000
   4712 C          69.5829   19.9873   13.5844 C.3     665      M_A    0.0000
   4713 H          71.0056   18.7005   13.0114 H       665      M_A    0.0000
   4714 H          71.1867   19.2505   14.5293 H       665      M_A    0.0000
   4715 H          69.5637   20.9968   13.6608 H       665      M_A    0.0000
   4716 H          69.1401   19.7540   12.7042 H       665      M_A    0.0000
   4717 C          68.8016   19.4231   14.6635 C.3     666      M_A    0.0000
   4718 C          67.4710   19.9033   14.6701 C.3     666      M_A    0.0000
   4719 H          68.8061   18.4143   14.5768 H       666      M_A    0.0000
   4720 H          69.2539   19.6414   15.5427 H       666      M_A    0.0000
   4721 H          67.3819   20.6699   15.3255 H       666      M_A    0.0000
   4722 H          67.2302   20.2711   13.7580 H       666      M_A    0.0000
   4723 C          66.5182   18.8737   15.0243 C.3     667      M_A    0.0000
   4724 C          65.1933   19.3659   15.0807 C.3     667      M_A    0.0000
   4725 H          66.5814   18.1237   14.3470 H       667      M_A    0.0000
   4726 H          66.7808   18.4801   15.9194 H       667      M_A    0.0000
   4727 H          65.2002   20.3604   15.2708 H       667      M_A    0.0000
   4728 H          64.7393   19.2446   14.1838 H       667      M_A    0.0000
   4729 C          64.4046   18.7024   16.0961 C.3     668      M_A    0.0000
   4730 C          63.0569   18.5317   15.7017 C.3     668      M_A    0.0000
   4731 H          64.8235   17.8032   16.2989 H       668      M_A    0.0000
   4732 H          64.4504   19.2438   16.9505 H       668      M_A    0.0000
   4733 H          62.6459   19.4284   15.4730 H       668      M_A    0.0000
   4734 H          63.0096   17.9677   14.8621 H       668      M_A    0.0000
   4735 C          62.2596   17.9023   16.7319 C.3     669      M_A    0.0000
   4736 C          61.6517   16.7063   16.2836 C.3     669      M_A    0.0000
   4737 H          62.8506   17.7128   17.5318 H       669      M_A    0.0000
   4738 H          61.5516   18.5565   17.0420 H       669      M_A    0.0000
   4739 H          60.7095   16.8942   15.9642 H       669      M_A    0.0000
   4740 H          62.1593   16.3352   15.4900 H       669      M_A    0.0000
   4741 C          61.6006   15.6960   17.3181 C.3     670      M_A    0.0000
   4742 C          60.8598   14.5585   16.9204 C.3     670      M_A    0.0000
   4743 H          62.5467   15.4275   17.5591 H       670      M_A    0.0000
   4744 H          61.1926   16.1023   18.1511 H       670      M_A    0.0000
   4745 H          60.1485   14.8242   16.2506 H       670      M_A    0.0000
   4746 H          61.4659   13.8954   16.4533 H       670      M_A    0.0000
   4747 C          60.2231   13.8998   18.0403 C.3     671      M_A    0.0000
   4748 C          59.0714   13.1758   17.6522 C.3     671      M_A    0.0000
   4749 H          60.8927   13.2787   18.4773 H       671      M_A    0.0000
   4750 H          59.9780   14.5968   18.7326 H       671      M_A    0.0000
   4751 H          58.5788   12.8420   18.4714 H       671      M_A    0.0000
   4752 H          58.4311   13.7825   17.1551 H       671      M_A    0.0000
   4753 C          59.3929   12.0453   16.8085 C.3     672      M_A    0.0000
   4754 C          58.3305   11.1145   16.7315 C.3     672      M_A    0.0000
   4755 H          59.6252   12.3844   15.8831 H       672      M_A    0.0000
   4756 H          60.2242   11.5942   17.1700 H       672      M_A    0.0000
   4757 H          58.4280   10.5444   15.9005 H       672      M_A    0.0000
   4758 H          58.3638   10.4835   17.5227 H       672      M_A    0.0000
   4759 C          57.0363   11.7607   16.7045 C.3     673      M_A    0.0000
   4760 C          56.8396   12.6136   17.8158 C.3     673      M_A    0.0000
   4761 H          56.9522   12.2871   15.8437 H       673      M_A    0.0000
   4762 H          56.3166   11.0489   16.6816 H       673      M_A    0.0000
   4763 H          56.5747   12.0701   18.6280 H       673      M_A    0.0000
   4764 H          57.7053   13.0836   18.0502 H       673      M_A    0.0000
   4765 C          55.8201   13.6099   17.5686 C.3     674      M_A    0.0000
   4766 C          56.1282   14.8528   18.1698 C.2     674      M_A    0.0000
   4767 H          55.7121   13.7253   16.5685 H       674      M_A    0.0000
   4768 H          54.9349   13.2649   17.9188 H       674      M_A    0.0000
   4769 H          56.2361   14.7374   19.1699 H       674      M_A    0.0000
   4770 H          57.0134   15.1978   17.8197 H       674      M_A    0.0000
   4771 C          83.5034   16.4441   16.6148 C.2     675      M_A    0.0000
   4772 C          82.2498   15.7814   16.0334 C.3     675      M_A    0.0000
   4773 H          83.5606   16.2587   17.6946 H       675      M_A    0.0000
   4774 H          83.4486   17.5321   16.4845 H       675      M_A    0.0000
   4775 H          82.0702   16.1454   15.0142 H       675      M_A    0.0000
   4776 H          82.3977   14.6969   15.9590 H       675      M_A    0.0000
   4777 C          80.9742   16.0590   16.9012 C.3     676      M_A    0.0000
   4778 C          81.1564   15.6208   18.3585 C.3     676      M_A    0.0000
   4779 H          80.7425   17.1304   16.8567 H       676      M_A    0.0000
   4780 H          80.1212   15.5335   16.4543 H       676      M_A    0.0000
   4781 H          81.3923   14.5503   18.4028 H       676      M_A    0.0000
   4782 H          82.0068   16.1496   18.8068 H       676      M_A    0.0000
   4783 C          79.8786   15.8929   19.2250 C.3     677      M_A    0.0000
   4784 C          79.3640   14.6248   19.9151 C.3     677      M_A    0.0000
   4785 H          80.1156   16.6588   19.9738 H       677      M_A    0.0000
   4786 H          79.0972   16.3138   18.5802 H       677      M_A    0.0000
   4787 H          78.6896   14.0787   19.2440 H       677      M_A    0.0000
   4788 H          80.2010   13.9512   20.1370 H       677      M_A    0.0000
   4789 C          78.6028   14.9413   21.2485 C.3     678      M_A    0.0000
   4790 C          77.1545   14.4404   21.2235 C.3     678      M_A    0.0000
   4791 H          79.1457   14.4810   22.0833 H       678      M_A    0.0000
   4792 H          78.6232   16.0249   21.4186 H       678      M_A    0.0000
   4793 H          76.4881   15.1945   21.6602 H       678      M_A    0.0000
   4794 H          76.8258   14.2916   20.1875 H       678      M_A    0.0000
   4795 C          76.9777   13.0947   22.0079 C.3     679      M_A    0.0000
   4796 C          75.7674   12.2918   21.5184 C.3     679      M_A    0.0000
   4797 H          77.8928   12.4994   21.8995 H       679      M_A    0.0000
   4798 H          76.8728   13.3195   23.0765 H       679      M_A    0.0000
   4799 H          75.7634   11.7539   22.2294 H       679      M_A    0.0000
   4800 H          75.0432   12.8077   21.5836 H       679      M_A    0.0000
   4801 C          75.6720   11.5812   20.4653 C.3     680      M_A    0.0000
   4802 C          75.4431   10.3842   20.7228 C.3     680      M_A    0.0000
   4803 H          75.0226   11.9132   19.9525 H       680      M_A    0.0000
   4804 H          76.4287   11.6545   19.9997 H       680      M_A    0.0000
   4805 H          75.6786   10.2018   21.5631 H       680      M_A    0.0000
   4806 H          74.5690   10.2198   20.6604 H       680      M_A    0.0000
   4807 C          76.0662    9.5945   19.9410 C.3     681      M_A    0.0000
   4808 C          75.4489    9.3994   18.8769 C.3     681      M_A    0.0000
   4809 H          76.8714    9.9365   19.7690 H       681      M_A    0.0000
   4810 H          76.2015    8.8206   20.3623 H       681      M_A    0.0000
   4811 H          75.6598    8.5999   18.5433 H       681      M_A    0.0000
   4812 H          74.5707    9.3892   19.0303 H       681      M_A    0.0000
   4813 C          75.7025   10.2895   18.0014 C.3     682      M_A    0.0000
   4814 C          75.9776    9.7952   16.8917 C.3     682      M_A    0.0000
   4815 H          74.9975   10.8303   17.9289 H       682      M_A    0.0000
   4816 H          76.3812   10.7908   18.2895 H       682      M_A    0.0000
   4817 H          76.3670    9.0004   16.9991 H       682      M_A    0.0000
   4818 H          75.2303    9.6534   16.4265 H       682      M_A    0.0000
   4819 C          76.7510   10.5425   16.2086 C.3     683      M_A    0.0000
   4820 C          76.6455   10.3375   14.9846 C.3     683      M_A    0.0000
   4821 H          76.5640   11.3945   16.3931 H       683      M_A    0.0000
   4822 H          77.5915   10.4022   16.4708 H       683      M_A    0.0000
   4823 H          75.7999   10.4532   14.7269 H       683      M_A    0.0000
   4824 H          77.1344   10.9301   14.5321 H       683      M_A    0.0000
   4825 C          77.0174    9.1636   14.6578 C.3     684      M_A    0.0000
   4826 C          77.0353    9.0006   13.4231 C.3     684      M_A    0.0000
   4827 H          77.8279    9.0139   14.9977 H       684      M_A    0.0000
   4828 H          76.4679    8.5723   15.0363 H       684      M_A    0.0000
   4829 H          77.1712    8.1409   13.2302 H       684      M_A    0.0000
   4830 H          76.2444    9.2194   13.0744 H       684      M_A    0.0000
   4831 C          77.9401    9.6964   12.8573 C.3     685      M_A    0.0000
   4832 C          77.7419    9.8240   11.6342 C.3     685      M_A    0.0000
   4833 H          77.9722   10.4977   13.2470 H       685      M_A    0.0000
   4834 H          78.7309    9.3104   13.0002 H       685      M_A    0.0000
   4835 H          77.3193    9.1061   11.3166 H       685      M_A    0.0000
   4836 H          77.2094   10.5227   11.4821 H       685      M_A    0.0000
   4837 C          78.8254    9.9841   10.9836 C.3     686      M_A    0.0000
   4838 C          78.7734   10.9614   10.2132 C.3     686      M_A    0.0000
   4839 H          79.4958   10.0865   11.5625 H       686      M_A    0.0000
   4840 H          78.9965    9.2403   10.5228 H       686      M_A    0.0000
   4841 H          79.5551   11.0645    9.7970 H       686      M_A    0.0000
   4842 H          78.1627   10.8190    9.5795 H       686      M_A    0.0000
   4843 C          78.4874   12.0426   10.8234 C.3     687      M_A    0.0000
   4844 C          79.3080   12.9493   10.5871 C.3     687      M_A    0.0000
   4845 H          77.6688   12.3007   10.5824 H       687      M_A    0.0000
   4846 H          78.4567   11.8787   11.6993 H       687      M_A    0.0000
   4847 H          79.3837   13.4854   11.2954 H       687      M_A    0.0000
   4848 H          80.1157   12.6006   10.4425 H       687      M_A    0.0000
   4849 C          78.9760   13.6494    9.5758 C.3     688      M_A    0.0000
   4850 C          79.7559   13.4937    8.6172 C.3     688      M_A    0.0000
   4851 H          78.1465   13.4295    9.3339 H       688      M_A    0.0000
   4852 H          78.9537   14.5079    9.8154 H       688      M_A    0.0000
   4853 H          80.3618   14.1476    8.6068 H       688      M_A    0.0000
   4854 H          80.2057   12.7295    8.7101 H       688      M_A    0.0000
   4855 C          79.1482   13.4791    7.4977 C.3     689      M_A    0.0000
   4856 C          79.1315   12.3443    6.9844 C.3     689      M_A    0.0000
   4857 H          78.3149   13.7719    7.6192 H       689      M_A    0.0000
   4858 H          79.5451   14.0576    6.9476 H       689      M_A    0.0000
   4859 H          79.7906   12.2684    6.3889 H       689      M_A    0.0000
   4860 H          79.2775   11.7244    7.6083 H       689      M_A    0.0000
   4861 C          78.0246   12.0922    6.4061 C.3     690      M_A    0.0000
   4862 C          77.3008   11.3360    7.0812 C.3     690      M_A    0.0000
   4863 H          77.6010   12.8607    6.2488 H       690      M_A    0.0000
   4864 H          78.1928   11.7251    5.6112 H       690      M_A    0.0000
   4865 H          76.9230   10.7239    6.5545 H       690      M_A    0.0000
   4866 H          77.7940   10.8921    7.6767 H       690      M_A    0.0000
   4867 C          76.3837   11.9694    7.6982 C.3     691      M_A    0.0000
   4868 C          75.5654   11.2040    8.2423 C.3     691      M_A    0.0000
   4869 H          76.7606   12.4982    8.3090 H       691      M_A    0.0000
   4870 H          75.9648   12.5038    7.1203 H       691      M_A    0.0000
   4871 H          74.7446   11.5484    8.1923 H       691      M_A    0.0000
   4872 H          75.5425   10.4242    7.8107 H       691      M_A    0.0000
   4873 C          75.8463   10.9880    9.4660 C.3     692      M_A    0.0000
   4874 C          74.8975   11.2648   10.2241 C.3     692      M_A    0.0000
   4875 H          76.0742   10.1313    9.5617 H       692      M_A    0.0000
   4876 H          76.5636   11.4698    9.6856 H       692      M_A    0.0000
   4877 H          74.1223   11.1385    9.8022 H       692      M_A    0.0000
   4878 H          74.8984   10.7169   10.9275 H       692      M_A    0.0000
   4879 C          74.9473   12.4677   10.6405 C.3     693      M_A    0.0000
   4880 C          75.1195   12.5342   11.8723 C.3     693      M_A    0.0000
   4881 H          75.6071   12.8916   10.2163 H       693      M_A    0.0000
   4882 H          74.1905   12.8815   10.4148 H       693      M_A    0.0000
   4883 H          74.3355   12.6290   12.2859 H       693      M_A    0.0000
   4884 H          75.4770   11.7745   12.1724 H       693      M_A    0.0000
   4885 C          75.8778   13.5033   12.2022 C.3     694      M_A    0.0000
   4886 C          76.6091   13.2220   13.1705 C.3     694      M_A    0.0000
   4887 H          76.3760   13.7308   11.4987 H       694      M_A    0.0000
   4888 H          75.3715   14.2109   12.3969 H       694      M_A    0.0000
   4889 H          76.2825   13.5858   13.9160 H       694      M_A    0.0000
   4890 H          76.6197   12.3399   13.2994 H       694      M_A    0.0000
   4891 C          77.8055   13.6274   13.0056 C.3     695      M_A    0.0000
   4892 C          77.9660   14.7978   13.4004 C.3     695      M_A    0.0000
   4893 H          78.3573   13.0794   13.4417 H       695      M_A    0.0000
   4894 H          78.0135   13.5652   12.1409 H       695      M_A    0.0000
   4895 H          77.5173   15.3617   12.8754 H       695      M_A    0.0000
   4896 H          77.6321   14.8919   14.2217 H       695      M_A    0.0000
   4897 C          79.1935   15.1386   13.4145 C.3     696      M_A    0.0000
   4898 C          79.4573   15.9892   12.5437 C.3     696      M_A    0.0000
   4899 H          79.3942   15.4564   14.2230 H       696      M_A    0.0000
   4900 H          79.6950   14.4115   13.2935 H       696      M_A    0.0000
   4901 H          78.8338   15.9780   11.9066 H       696      M_A    0.0000
   4902 H          79.4441   16.8062   12.9005 H       696      M_A    0.0000
   4903 C          80.5962   15.7938   12.0073 C.3     697      M_A    0.0000
   4904 C          80.7961   16.5476   11.0361 C.3     697      M_A    0.0000
   4905 H          81.2288   15.9150   12.6237 H       697      M_A    0.0000
   4906 H          80.6499   14.9420   11.7493 H       697      M_A    0.0000
   4907 H          81.6111   16.9052   11.0894 H       697      M_A    0.0000
   4908 H          80.7703   16.0812   10.2767 H       697      M_A    0.0000
   4909 C          79.9388   17.4876   10.9700 C.3     698      M_A    0.0000
   4910 C          80.3209   18.4249   10.2441 C.3     698      M_A    0.0000
   4911 H          79.1712   17.1553   10.6614 H       698      M_A    0.0000
   4912 H          79.7755   17.7862   11.7941 H       698      M_A    0.0000
   4913 H          79.8295   19.1523   10.4001 H       698      M_A    0.0000
   4914 H          81.1641   18.6387   10.4395 H       698      M_A    0.0000
   4915 C          80.2467   18.1372    9.0052 C.3     699      M_A    0.0000
   4916 C          79.5121   18.9257    8.3807 C.2     699      M_A    0.0000
   4917 H          81.0682   18.1452    8.6587 H       699      M_A    0.0000
   4918 H          79.9417   17.3037    8.9215 H       699      M_A    0.0000
   4919 H          78.6907   18.9177    8.7272 H       699      M_A    0.0000
   4920 H          79.8172   19.7592    8.4644 H       699      M_A    0.0000
   4921 C          85.0321   26.7996   15.3698 C.2     700      M_A    0.0000
   4922 C          84.3143   25.7819   14.4764 C.3     700      M_A    0.0000
   4923 H          85.0370   26.4498   16.4096 H       700      M_A    0.0000
   4924 H          84.4922   27.7545   15.3612 H       700      M_A    0.0000
   4925 H          83.7442   26.3021   13.6967 H       700      M_A    0.0000
   4926 H          85.0483   25.1499   13.9614 H       700      M_A    0.0000
   4927 C          83.3377   24.8631   15.2885 C.3     701      M_A    0.0000
   4928 C          82.2720   25.6688   16.0397 C.3     701      M_A    0.0000
   4929 H          82.8588   24.1582   14.5976 H       701      M_A    0.0000
   4930 H          83.9231   24.2625   15.9957 H       701      M_A    0.0000
   4931 H          82.0347   26.5861   15.4868 H       701      M_A    0.0000
   4932 H          81.3415   25.0915   16.1062 H       701      M_A    0.0000
   4933 C          82.7310   26.0560   17.4877 C.3     702      M_A    0.0000
   4934 C          81.7179   26.9628   18.1952 C.3     702      M_A    0.0000
   4935 H          82.8832   25.1375   18.0680 H       702      M_A    0.0000
   4936 H          83.7057   26.5559   17.4279 H       702      M_A    0.0000
   4937 H          80.9913   26.5180   18.6447 H       702      M_A    0.0000
   4938 H          82.3121   27.2848   18.8816 H       702      M_A    0.0000
   4939 C          81.2169   28.0404   17.5008 C.3     703      M_A    0.0000
   4940 C          80.4291   28.8185   18.2657 C.3     703      M_A    0.0000
   4941 H          81.9531   28.5557   17.1537 H       703      M_A    0.0000
   4942 H          80.7227   27.7169   16.7399 H       703      M_A    0.0000
   4943 H          80.4842   28.5405   19.1863 H       703      M_A    0.0000
   4944 H          80.7353   29.7313   18.2336 H       703      M_A    0.0000
   4945 C          79.1120   28.7781   17.8681 C.3     704      M_A    0.0000
   4946 C          78.2686   29.1103   18.8627 C.3     704      M_A    0.0000
   4947 H          78.9945   29.3759   17.1219 H       704      M_A    0.0000
   4948 H          78.9116   27.8923   17.5471 H       704      M_A    0.0000
   4949 H          78.2338   28.4034   19.5162 H       704      M_A    0.0000
   4950 H          78.5902   29.8945   19.3205 H       704      M_A    0.0000
   4951 C          76.9935   29.3550   18.4056 C.3     705      M_A    0.0000
   4952 C          76.1860   29.8252   19.3740 C.3     705      M_A    0.0000
   4953 H          77.0399   29.9858   17.6791 H       705      M_A    0.0000
   4954 H          76.6324   28.5397   18.0414 H       705      M_A    0.0000
   4955 H          75.8625   29.0979   19.9164 H       705      M_A    0.0000
   4956 H          76.6788   30.4095   19.9603 H       705      M_A    0.0000
   4957 C          75.1077   30.5133   18.8657 C.3     706      M_A    0.0000
   4958 C          74.0060   29.7451   18.7819 C.3     706      M_A    0.0000
   4959 H          74.9354   31.2780   19.4256 H       706      M_A    0.0000
   4960 H          75.3395   30.8545   17.9952 H       706      M_A    0.0000
   4961 H          74.0871   28.9861   19.3694 H       706      M_A    0.0000
   4962 H          73.2343   30.2411   19.0757 H       706      M_A    0.0000
   4963 C          73.7815   29.2930   17.5013 C.3     707      M_A    0.0000
   4964 C          72.4929   29.4189   17.1345 C.3     707      M_A    0.0000
   4965 H          74.3469   29.7838   16.8952 H       707      M_A    0.0000
   4966 H          74.0520   28.3701   17.4460 H       707      M_A    0.0000
   4967 H          71.9760   28.6866   17.4872 H       707      M_A    0.0000
   4968 H          72.1205   30.2252   17.5077 H       707      M_A    0.0000
   4969 C          72.3405   29.4514   15.7669 C.3     708      M_A    0.0000
   4970 C          71.9887   28.2537   15.2644 C.3     708      M_A    0.0000
   4971 H          71.6752   30.1114   15.5442 H       708      M_A    0.0000
   4972 H          73.1668   29.7466   15.3694 H       708      M_A    0.0000
   4973 H          72.4114   27.5480   15.7656 H       708      M_A    0.0000
   4974 H          71.0382   28.1247   15.3528 H       708      M_A    0.0000
   4975 C          72.3326   28.1231   13.9380 C.3     709      M_A    0.0000
   4976 C          72.4702   26.8356   13.5712 C.3     709      M_A    0.0000
   4977 H          71.6580   28.5498   13.3989 H       709      M_A    0.0000
   4978 H          73.1544   28.6006   13.7819 H       709      M_A    0.0000
   4979 H          72.6563   26.2903   14.3431 H       709      M_A    0.0000
   4980 H          71.6457   26.5096   13.1944 H       709      M_A    0.0000
   4981 C          73.4784   26.6604   12.6507 C.3     710      M_A    0.0000
   4982 C          73.0043   26.4063   11.4171 C.3     710      M_A    0.0000
   4983 H          74.0274   27.4518   12.6370 H       710      M_A    0.0000
   4984 H          74.0434   25.9369   12.9429 H       710      M_A    0.0000
   4985 H          72.3332   25.7165   11.4568 H       710      M_A    0.0000
   4986 H          72.5739   27.1909   11.0606 H       710      M_A    0.0000
   4987 C          73.9960   26.0109   10.5483 C.3     711      M_A    0.0000
   4988 C          73.8762   26.5904    9.3397 C.3     711      M_A    0.0000
   4989 H          74.8516   26.2268   10.9347 H       711      M_A    0.0000
   4990 H          73.9668   25.0522   10.4593 H       711      M_A    0.0000
   4991 H          72.9751   26.9065    9.2128 H       711      M_A    0.0000
   4992 H          74.4502   27.3621    9.2850 H       711      M_A    0.0000
   4993 C          74.1926   25.7285    8.3142 C.3     712      M_A    0.0000
   4994 C          75.3560   26.0495    7.7189 C.3     712      M_A    0.0000
   4995 H          74.2370   24.8323    8.6644 H       712      M_A    0.0000
   4996 H          73.4776   25.7382    7.6688 H       712      M_A    0.0000
   4997 H          75.2700   25.9723    6.7625 H       712      M_A    0.0000
   4998 H          75.5790   26.9682    7.9033 H       712      M_A    0.0000
   4999 C          76.3943   25.2484    8.1370 C.3     713      M_A    0.0000
   5000 C          77.2508   24.9615    7.1394 C.2     713      M_A    0.0000
   5001 H          76.8595   25.6922    8.8543 H       713      M_A    0.0000
   5002 H          76.0308   24.4354    8.5042 H       713      M_A    0.0000
   5003 H          76.7856   24.5177    6.4221 H       713      M_A    0.0000
   5004 H          77.6143   25.7744    6.7721 H       713      M_A    0.0000
   5005 C          74.9633   41.8201   13.5985 C.2     714      M_A    0.0000
   5006 C          73.5841   41.4748   13.0261 C.3     714      M_A    0.0000
   5007 H          74.8780   42.0628   14.6649 H       714      M_A    0.0000
   5008 H          75.3632   42.7135   13.1030 H       714      M_A    0.0000
   5009 H          73.6917   40.8076   12.1619 H       714      M_A    0.0000
   5010 H          72.9926   40.9303   13.7726 H       714      M_A    0.0000
   5011 C          72.7881   42.7507   12.5835 C.3     715      M_A    0.0000
   5012 C          73.1451   43.9796   13.4269 C.3     715      M_A    0.0000
   5013 H          72.9964   42.9477   11.5246 H       715      M_A    0.0000
   5014 H          71.7139   42.5414   12.6596 H       715      M_A    0.0000
   5015 H          72.2360   44.5391   13.6800 H       715      M_A    0.0000
   5016 H          73.5967   43.6661   14.3762 H       715      M_A    0.0000
   5017 C          74.1395   44.9395   12.6870 C.3     716      M_A    0.0000
   5018 C          73.9976   46.3932   13.1513 C.3     716      M_A    0.0000
   5019 H          75.1644   44.5879   12.8591 H       716      M_A    0.0000
   5020 H          73.9600   44.8703   11.6069 H       716      M_A    0.0000
   5021 H          73.0586   46.8181   12.7755 H       716      M_A    0.0000
   5022 H          73.9463   46.4349   14.2464 H       716      M_A    0.0000
   5023 C          75.1880   47.2906   12.6667 C.3     717      M_A    0.0000
   5024 C          74.7077   48.6061   12.0439 C.3     717      M_A    0.0000
   5025 H          75.8459   47.4965   13.5201 H       717      M_A    0.0000
   5026 H          75.7835   46.7253   11.9391 H       717      M_A    0.0000
   5027 H          73.7037   48.4775   11.6209 H       717      M_A    0.0000
   5028 H          74.6271   49.3807   12.8166 H       717      M_A    0.0000
   5029 C          75.6698   49.1156   10.9160 C.3     718      M_A    0.0000
   5030 C          75.6131   50.6380   10.7481 C.3     718      M_A    0.0000
   5031 H          76.6932   48.8014   11.1556 H       718      M_A    0.0000
   5032 H          75.4015   48.6230    9.9732 H       718      M_A    0.0000
   5033 H          76.2719   50.9508    9.9286 H       718      M_A    0.0000
   5034 H          74.5978   50.9485   10.4722 H       718      M_A    0.0000
   5035 C          76.0359   51.3958   12.0537 C.3     719      M_A    0.0000
   5036 C          76.0670   52.9157   11.8588 C.3     719      M_A    0.0000
   5037 H          75.3363   51.1338   12.8570 H       719      M_A    0.0000
   5038 H          77.0240   51.0364   12.3668 H       719      M_A    0.0000
   5039 H          76.8260   53.1840   11.1135 H       719      M_A    0.0000
   5040 H          75.1035   53.2645   11.4670 H       719      M_A    0.0000
   5041 C          76.3764   53.6794   13.1924 C.3     720      M_A    0.0000
   5042 C          75.8374   55.1141   13.1787 C.3     720      M_A    0.0000
   5043 H          75.9387   53.1212   14.0293 H       720      M_A    0.0000
   5044 H          77.4617   53.6869   13.3520 H       720      M_A    0.0000
   5045 H          76.1159   55.6116   12.2414 H       720      M_A    0.0000
   5046 H          74.7410   55.1044   13.2165 H       720      M_A    0.0000
   5047 C          76.3769   55.9630   14.3810 C.3     721      M_A    0.0000
   5048 C          75.3603   56.0635   15.5236 C.3     721      M_A    0.0000
   5049 H          77.3076   55.5099   14.7444 H       721      M_A    0.0000
   5050 H          76.6353   56.9656   14.0182 H       721      M_A    0.0000
   5051 H          75.3512   57.0142   15.8130 H       721      M_A    0.0000
   5052 H          74.4611   55.8714   15.1466 H       721      M_A    0.0000
   5053 C          75.5645   55.2403   16.6625 C.3     722      M_A    0.0000
   5054 C          74.3722   54.7513   17.1789 C.3     722      M_A    0.0000
   5055 H          76.1611   54.4867   16.4102 H       722      M_A    0.0000
   5056 H          76.0458   55.7657   17.3553 H       722      M_A    0.0000
   5057 H          74.3839   54.8031   18.1712 H       722      M_A    0.0000
   5058 H          73.6122   55.3136   16.8727 H       722      M_A    0.0000
   5059 C          74.1305   53.4061   16.7936 C.3     723      M_A    0.0000
   5060 C          74.3557   52.5128   17.8323 C.3     723      M_A    0.0000
   5061 H          73.1927   53.3279   16.4742 H       723      M_A    0.0000
   5062 H          74.7146   53.1843   16.0208 H       723      M_A    0.0000
   5063 H          73.8271   52.7784   18.6308 H       723      M_A    0.0000
   5064 H          74.0455   51.6046   17.5740 H       723      M_A    0.0000
   5065 C          75.7271   52.4425   18.1939 C.3     724      M_A    0.0000
   5066 C          76.3341   51.2822   17.7324 C.3     724      M_A    0.0000
   5067 H          76.1955   53.2399   17.8302 H       724      M_A    0.0000
   5068 H          75.8005   52.4950   19.1835 H       724      M_A    0.0000
   5069 H          76.0456   50.5054   18.2809 H       724      M_A    0.0000
   5070 H          76.0469   51.0953   16.7996 H       724      M_A    0.0000
   5071 C          77.7512   51.3659   17.7670 C.3     725      M_A    0.0000
   5072 C          78.3256   51.0750   16.5370 C.3     725      M_A    0.0000
   5073 H          78.0111   52.2803   18.0567 H       725      M_A    0.0000
   5074 H          78.0923   50.7396   18.4590 H       725      M_A    0.0000
   5075 H          78.4415   50.0929   16.4388 H       725      M_A    0.0000
   5076 H          77.7232   51.3661   15.8022 H       725      M_A    0.0000
   5077 C          79.5879   51.7037   16.3703 C.3     726      M_A    0.0000
   5078 C          80.4872   50.9033   15.6788 C.3     726      M_A    0.0000
   5079 H          79.4566   52.5631   15.8889 H       726      M_A    0.0000
   5080 H          79.9532   51.9312   17.2661 H       726      M_A    0.0000
   5081 H          80.3687   49.9522   15.9415 H       726      M_A    0.0000
   5082 H          80.3079   50.9542   14.7027 H       726      M_A    0.0000
   5083 C          81.8357   51.2793   15.9168 C.3     727      M_A    0.0000
   5084 C          82.7350   50.3124   15.4880 C.3     727      M_A    0.0000
   5085 H          82.0146   52.1403   15.4538 H       727      M_A    0.0000
   5086 H          81.9544   51.4480   16.8889 H       727      M_A    0.0000
   5087 H          82.6659   50.1953   14.5036 H       727      M_A    0.0000
   5088 H          83.6658   50.6056   15.6759 H       727      M_A    0.0000
   5089 C          82.5152   49.0573   16.1148 C.3     728      M_A    0.0000
   5090 C          83.2439   48.0369   15.5190 C.3     728      M_A    0.0000
   5091 H          82.7569   49.1325   17.0758 H       728      M_A    0.0000
   5092 H          81.5444   48.8478   16.0804 H       728      M_A    0.0000
   5093 H          83.0932   48.0391   14.5368 H       728      M_A    0.0000
   5094 H          84.2164   48.1862   15.6588 H       728      M_A    0.0000
   5095 C          82.8987   46.7586   16.0321 C.3     729      M_A    0.0000
   5096 C          83.8169   45.7815   15.6719 C.3     729      M_A    0.0000
   5097 H          82.8345   46.8175   17.0221 H       729      M_A    0.0000
   5098 H          81.9940   46.5144   15.7015 H       729      M_A    0.0000
   5099 H          84.2158   45.9981   14.7879 H       729      M_A    0.0000
   5100 H          84.5656   45.7601   16.3252 H       729      M_A    0.0000
   5101 C          83.2303   44.4900   15.6055 C.3     730      M_A    0.0000
   5102 C          83.8845   43.5726   16.4165 C.3     730      M_A    0.0000
   5103 H          82.2748   44.5582   15.8700 H       730      M_A    0.0000
   5104 H          83.2436   44.1804   14.6613 H       730      M_A    0.0000
   5105 H          84.8649   43.6184   16.2608 H       730      M_A    0.0000
   5106 H          83.7368   43.7974   17.3732 H       730      M_A    0.0000
   5107 C          83.4461   42.2418   16.1860 C.3     731      M_A    0.0000
   5108 C          84.2848   41.3027   16.7710 C.3     731      M_A    0.0000
   5109 H          82.5233   42.1425   16.5411 H       731      M_A    0.0000
   5110 H          83.3928   42.0874   15.2058 H       731      M_A    0.0000
   5111 H          85.1966   41.6822   16.8815 H       731      M_A    0.0000
   5112 H          83.9584   41.0746   17.6815 H       731      M_A    0.0000
   5113 C          84.3750   40.1105   16.0050 C.3     732      M_A    0.0000
   5114 C          84.8907   39.0510   16.7393 C.3     732      M_A    0.0000
   5115 H          83.4707   39.8800   15.6634 H       732      M_A    0.0000
   5116 H          84.9451   40.2831   15.2095 H       732      M_A    0.0000
   5117 H          85.7964   39.2801   17.0780 H       732      M_A    0.0000
   5118 H          84.3226   38.8806   17.5366 H       732      M_A    0.0000
   5119 C          84.9763   37.8575   15.9747 C.3     733      M_A    0.0000
   5120 C          85.7426   36.8846   16.6021 C.3     733      M_A    0.0000
   5121 H          84.0578   37.5151   15.8115 H       733      M_A    0.0000
   5122 H          85.3624   38.0741   15.0850 H       733      M_A    0.0000
   5123 H          86.5474   37.2975   17.0135 H       733      M_A    0.0000
   5124 H          85.2258   36.4682   17.3418 H       733      M_A    0.0000
   5125 C          86.1589   35.8658   15.7047 C.3     734      M_A    0.0000
   5126 C          87.5415   35.7737   15.6181 C.3     734      M_A    0.0000
   5127 H          85.7778   34.9987   16.0054 H       734      M_A    0.0000
   5128 H          85.7730   36.0516   14.8080 H       734      M_A    0.0000
   5129 H          87.7960   35.0305   15.0095 H       734      M_A    0.0000
   5130 H          87.9144   36.6061   15.2237 H       734      M_A    0.0000
   5131 C          88.1467   35.5561   16.8842 C.3     735      M_A    0.0000
   5132 C          89.3378   34.8501   16.7836 C.3     735      M_A    0.0000
   5133 H          88.3075   36.4357   17.3177 H       735      M_A    0.0000
   5134 H          87.5072   35.0646   17.4647 H       735      M_A    0.0000
   5135 H          89.1972   34.0174   16.2597 H       735      M_A    0.0000
   5136 H          90.0120   35.3877   16.2896 H       735      M_A    0.0000
   5137 C          89.8688   34.5066   18.0551 C.3     736      M_A    0.0000
   5138 C          90.8178   33.4965   17.9735 C.3     736      M_A    0.0000
   5139 H          90.2696   35.3184   18.4648 H       736      M_A    0.0000
   5140 H          89.1228   34.2260   18.6486 H       736      M_A    0.0000
   5141 H          91.5325   33.6452   18.6479 H       736      M_A    0.0000
   5142 H          90.4016   32.6198   18.1873 H       736      M_A    0.0000
   5143 C          91.4122   33.4192   16.6862 C.3     737      M_A    0.0000
   5144 C          91.7568   32.1189   16.3430 C.3     737      M_A    0.0000
   5145 H          90.7781   33.7914   16.0177 H       737      M_A    0.0000
   5146 H          92.2179   34.0008   16.6699 H       737      M_A    0.0000
   5147 H          92.4687   32.1267   15.6497 H       737      M_A    0.0000
   5148 H          92.1325   31.6463   17.1324 H       737      M_A    0.0000
   5149 C          90.6479   31.3800   15.8521 C.3     738      M_A    0.0000
   5150 C          90.7145   31.1806   14.4798 C.3     738      M_A    0.0000
   5151 H          90.6126   30.5052   16.3222 H       738      M_A    0.0000
   5152 H          89.8119   31.8636   16.0861 H       738      M_A    0.0000
   5153 H          89.7984   31.1155   14.1001 H       738      M_A    0.0000
   5154 H          91.1497   31.9599   14.0430 H       738      M_A    0.0000
   5155 C          91.4350   30.0048   14.1411 C.3     739      M_A    0.0000
   5156 C          90.8553   29.3192   13.0821 C.2     739      M_A    0.0000
   5157 H          92.3692   30.2559   13.9139 H       739      M_A    0.0000
   5158 H          91.4839   29.4175   14.9413 H       739      M_A    0.0000
   5159 H          89.9210   29.0681   13.3094 H       739      M_A    0.0000
   5160 H          90.8064   29.9065   12.2820 H       739      M_A    0.0000
   5161 C          74.6126   23.0936   34.9983 C.2     740      M_A    0.0000
   5162 C          74.5752   21.9351   34.4782 C.3     740      M_A    0.0000
   5163 H          73.8325   23.2657   35.4327 H       740      M_A    0.0000
   5164 H          74.6945   23.7246   34.3486 H       740      M_A    0.0000
   5165 H          75.4186   21.6094   34.3814 H       740      M_A    0.0000
   5166 H          74.1348   21.3604   35.0284 H       740      M_A    0.0000
   5167 C          73.9904   21.9350   33.3178 C.3     741      M_A    0.0000
   5168 C          74.5204   21.1084   32.5117 C.3     741      M_A    0.0000
   5169 H          73.1103   21.7374   33.4331 H       741      M_A    0.0000
   5170 H          74.0262   22.7750   32.9714 H       741      M_A    0.0000
   5171 H          75.4140   21.0484   32.6693 H       741      M_A    0.0000
   5172 H          74.1754   20.2777   32.6451 H       741      M_A    0.0000
   5173 C          74.3358   21.4441   31.2700 C.3     742      M_A    0.0000
   5174 C          75.1684   20.8838   30.4909 C.3     742      M_A    0.0000
   5175 H          73.4869   21.2235   31.0299 H       742      M_A    0.0000
   5176 H          74.4010   22.3482   31.1980 H       742      M_A    0.0000
   5177 H          75.0744   19.9803   30.5318 H       742      M_A    0.0000
   5178 H          75.0011   21.1251   29.6302 H       742      M_A    0.0000
   5179 C          76.3974   21.1906   30.7806 C.3     743      M_A    0.0000
   5180 C          77.2047   20.8714   29.8531 C.3     743      M_A    0.0000
   5181 H          76.4460   22.0841   30.9426 H       743      M_A    0.0000
   5182 H          76.6295   20.7720   31.5538 H       743      M_A    0.0000
   5183 H          77.5651   20.0536   30.0211 H       743      M_A    0.0000
   5184 H          76.7604   20.8036   29.0626 H       743      M_A    0.0000
   5185 C          78.1674   21.7339   29.7197 C.3     744      M_A    0.0000
   5186 C          78.5433   21.8531   28.5120 C.3     744      M_A    0.0000
   5187 H          77.8873   22.5377   30.0399 H       744      M_A    0.0000
   5188 H          78.8670   21.4751   30.2399 H       744      M_A    0.0000
   5189 H          78.3663   21.0881   28.0535 H       744      M_A    0.0000
   5190 H          78.0744   22.5167   28.1036 H       744      M_A    0.0000
   5191 C          79.8121   22.1157   28.4148 C.3     745      M_A    0.0000
   5192 C          80.0606   22.9569   27.4957 C.3     745      M_A    0.0000
   5193 H          80.1083   22.4312   29.2146 H       745      M_A    0.0000
   5194 H          80.2607   21.3405   28.2575 H       745      M_A    0.0000
   5195 H          79.6806   22.6870   26.7149 H       745      M_A    0.0000
   5196 H          79.6910   23.7619   27.7015 H       745      M_A    0.0000
   5197 C          81.3362   23.1178   27.3071 C.3     746      M_A    0.0000
   5198 C          81.5877   23.7677   26.2448 C.3     746      M_A    0.0000
   5199 H          81.6868   23.5490   28.0268 H       746      M_A    0.0000
   5200 H          81.7329   22.3002   27.2737 H       746      M_A    0.0000
   5201 H          80.8864   23.7074   25.6690 H       746      M_A    0.0000
   5202 H          81.6928   24.6503   26.4368 H       746      M_A    0.0000
   5203 C          82.6586   23.3387   25.6469 C.3     747      M_A    0.0000
   5204 C          83.5514   24.2377   25.5546 C.3     747      M_A    0.0000
   5205 H          82.9830   22.6229   26.1045 H       747      M_A    0.0000
   5206 H          82.4317   23.0384   24.8191 H       747      M_A    0.0000
   5207 H          83.3120   24.8517   24.9280 H       747      M_A    0.0000
   5208 H          83.6264   24.6848   26.3429 H       747      M_A    0.0000
   5209 C          84.7128   23.7479   25.2387 C.3     748      M_A    0.0000
   5210 C          85.0285   23.9963   24.0335 C.3     748      M_A    0.0000
   5211 H          85.3387   24.0911   25.8021 H       748      M_A    0.0000
   5212 H          84.6999   22.8495   25.3789 H       748      M_A    0.0000
   5213 H          84.2789   24.1255   23.5351 H       748      M_A    0.0000
   5214 H          85.5076   24.7679   23.9894 H       748      M_A    0.0000
   5215 C          85.7263   23.0388   23.4999 C.3     749      M_A    0.0000
   5216 C          85.1233   22.4884   22.5265 C.3     749      M_A    0.0000
   5217 H          86.5234   23.3769   23.2218 H       749      M_A    0.0000
   5218 H          85.9138   22.4209   24.1401 H       749      M_A    0.0000
   5219 H          84.2236   22.5401   22.6477 H       749      M_A    0.0000
   5220 H          85.3087   22.9314   21.7542 H       749      M_A    0.0000
   5221 C          85.4557   21.2404   22.3836 C.3     750      M_A    0.0000
   5222 C          86.6901   21.0981   22.1190 C.3     750      M_A    0.0000
   5223 H          85.2467   20.7922   23.1467 H       750      M_A    0.0000
   5224 H          84.9507   20.8767   21.7205 H       750      M_A    0.0000
   5225 H          86.8393   21.2518   21.2352 H       750      M_A    0.0000
   5226 H          87.1800   21.7121   22.5772 H       750      M_A    0.0000
   5227 C          87.1237   19.9099   22.4165 C.3     751      M_A    0.0000
   5228 C          88.3077   19.7114   22.0009 C.3     751      M_A    0.0000
   5229 H          87.0879   19.8021   23.3188 H       751      M_A    0.0000
   5230 H          86.5597   19.2936   22.0573 H       751      M_A    0.0000
   5231 H          88.2931   19.4547   21.1286 H       751      M_A    0.0000
   5232 H          88.7848   20.4847   22.0375 H       751      M_A    0.0000
   5233 C          88.9274   18.8037   22.6942 C.3     752      M_A    0.0000
   5234 C          89.0244   17.7025   22.0683 C.3     752      M_A    0.0000
   5235 H          89.7546   19.1137   22.9100 H       752      M_A    0.0000
   5236 H          88.4827   18.6790   23.4776 H       752      M_A    0.0000
   5237 H          88.2037   17.4310   21.7858 H       752      M_A    0.0000
   5238 H          89.5342   17.8112   21.3232 H       752      M_A    0.0000
   5239 C          89.5469   16.7645   22.8001 C.3     753      M_A    0.0000
   5240 C          89.5629   15.6421   22.2050 C.3     753      M_A    0.0000
   5241 H          90.3926   17.0081   23.0290 H       753      M_A    0.0000
   5242 H          89.0750   16.6999   23.5747 H       753      M_A    0.0000
   5243 H          90.3975   15.2826   22.2398 H       753      M_A    0.0000
   5244 H          89.0089   15.0575   22.6270 H       753      M_A    0.0000
   5245 C          89.2003   15.7392   20.9610 C.3     754      M_A    0.0000
   5246 C          90.1138   15.3628   20.1624 C.3     754      M_A    0.0000
   5247 H          88.4506   15.2403   20.8344 H       754      M_A    0.0000
   5248 H          88.9717   16.6023   20.7887 H       754      M_A    0.0000
   5249 H          90.7552   16.0042   20.0978 H       754      M_A    0.0000
   5250 H          90.5220   14.6168   20.4847 H       754      M_A    0.0000
   5251 C          89.6547   15.1084   18.9736 C.3     755      M_A    0.0000
   5252 C          90.1807   14.0691   18.4666 C.2     755      M_A    0.0000
   5253 H          88.7522   15.0087   19.0231 H       755      M_A    0.0000
   5254 H          89.8091   15.8281   18.4396 H       755      M_A    0.0000
   5255 H          91.0832   14.1688   18.4171 H       755      M_A    0.0000
   5256 H          90.0264   13.3494   19.0006 H       755      M_A    0.0000
   5257 C          59.2500   45.2785   16.4758 C.2     756      M_A    0.0000
   5258 C          58.5223   44.4396   15.7379 C.3     756      M_A    0.0000
   5259 H          59.9685   44.8086   16.8927 H       756      M_A    0.0000
   5260 H          58.7168   45.6431   17.1784 H       756      M_A    0.0000
   5261 H          57.7244   44.8718   15.4422 H       756      M_A    0.0000
   5262 H          59.0056   44.1900   14.9537 H       756      M_A    0.0000
   5263 C          58.1825   43.3104   16.4229 C.3     757      M_A    0.0000
   5264 C          59.2466   42.6889   16.9322 C.3     757      M_A    0.0000
   5265 H          57.5753   43.5449   17.1209 H       757      M_A    0.0000
   5266 H          57.7114   42.7242   15.8353 H       757      M_A    0.0000
   5267 H          59.6076   42.0802   16.2920 H       757      M_A    0.0000
   5268 H          59.9337   43.3223   17.1260 H       757      M_A    0.0000
   5269 C          58.9476   42.0022   18.0719 C.3     758      M_A    0.0000
   5270 C          60.0403   41.5807   18.7092 C.3     758      M_A    0.0000
   5271 H          58.4318   42.5655   18.6441 H       758      M_A    0.0000
   5272 H          58.3930   41.2589   17.8466 H       758      M_A    0.0000
   5273 H          60.3321   40.7489   18.3435 H       758      M_A    0.0000
   5274 H          60.7537   42.2016   18.5813 H       758      M_A    0.0000
   5275 C          59.8296   41.4228   20.0473 C.3     759      M_A    0.0000
   5276 C          60.5436   40.4184   20.5563 C.3     759      M_A    0.0000
   5277 H          60.0491   42.2385   20.4917 H       759      M_A    0.0000
   5278 H          58.8992   41.2714   20.1965 H       759      M_A    0.0000
   5279 H          60.8086   39.8203   19.8614 H       759      M_A    0.0000
   5280 H          61.3458   40.7537   20.9499 H       759      M_A    0.0000
   5281 C          59.8509   39.7176   21.4991 C.3     760      M_A    0.0000
   5282 C          60.2920   38.4655   21.6233 C.3     760      M_A    0.0000
   5283 H          59.9210   40.1736   22.3345 H       760      M_A    0.0000
   5284 H          58.9260   39.7169   21.2639 H       760      M_A    0.0000
   5285 H          59.8132   37.8896   21.0316 H       760      M_A    0.0000
   5286 H          61.2109   38.4156   21.3704 H       760      M_A    0.0000
   5287 C          60.1603   37.9951   22.8966 C.3     761      M_A    0.0000
   5288 C          60.3228   36.6735   22.9664 C.3     761      M_A    0.0000
   5289 H          60.7993   38.4332   23.4540 H       761      M_A    0.0000
   5290 H          59.2979   38.2367   23.2261 H       761      M_A    0.0000
   5291 H          60.8127   36.4451   23.7529 H       761      M_A    0.0000
   5292 H          59.4740   36.2428   23.0375 H       761      M_A    0.0000
   5293 C          60.9789   36.1753   21.8796 C.3     762      M_A    0.0000
   5294 C          60.8980   34.8465   21.8059 C.3     762      M_A    0.0000
   5295 H          60.6124   36.5697   21.0915 H       762      M_A    0.0000
   5296 H          61.8932   36.4457   21.9216 H       762      M_A    0.0000
   5297 H          61.6743   34.4494   22.1939 H       762      M_A    0.0000
   5298 H          60.1499   34.5357   22.3104 H       762      M_A    0.0000
   5299 C          60.7750   34.4067   20.5208 C.3     763      M_A    0.0000
   5300 C          60.4395   33.1178   20.4578 C.3     763      M_A    0.0000
   5301 H          60.1189   34.9377   20.0755 H       763      M_A    0.0000
   5302 H          61.6009   34.5525   20.0654 H       763      M_A    0.0000
   5303 H          61.0250   32.6001   21.0056 H       763      M_A    0.0000
   5304 H          59.5586   32.9916   20.8027 H       763      M_A    0.0000
   5305 C          60.4865   32.6332   19.1839 C.3     764      M_A    0.0000
   5306 C          60.0107   31.3906   19.0981 C.3     764      M_A    0.0000
   5307 H          59.9874   33.2147   18.6150 H       764      M_A    0.0000
   5308 H          61.3901   32.6595   18.8779 H       764      M_A    0.0000
   5309 H          59.0756   31.3843   19.2889 H       764      M_A    0.0000
   5310 H          60.1109   31.0626   18.2075 H       764      M_A    0.0000
   5311 C          60.6399   30.5360   19.9547 C.3     765      M_A    0.0000
   5312 C          59.8012   29.6481   20.4895 C.3     765      M_A    0.0000
   5313 H          61.3366   30.0853   19.4831 H       765      M_A    0.0000
   5314 H          61.0603   31.0452   20.6437 H       765      M_A    0.0000
   5315 H          59.0383   30.0943   20.8497 H       765      M_A    0.0000
   5316 H          59.4786   29.0551   19.8148 H       765      M_A    0.0000
   5317 C          60.3875   28.9129   21.4771 C.3     766      M_A    0.0000
   5318 C          59.5437   28.0373   22.0240 C.3     766      M_A    0.0000
   5319 H          61.1428   28.4565   21.1137 H       766      M_A    0.0000
   5320 H          60.7217   29.5067   22.1455 H       766      M_A    0.0000
   5321 H          60.0099   27.4714   22.6350 H       766      M_A    0.0000
   5322 H          58.8776   28.4969   22.5299 H       766      M_A    0.0000
   5323 C          58.9269   27.2603   21.0883 C.3     767      M_A    0.0000
   5324 C          58.7931   25.9959   21.4899 C.3     767      M_A    0.0000
   5325 H          58.0706   27.6343   20.8939 H       767      M_A    0.0000
   5326 H          59.4312   27.2949   20.2788 H       767      M_A    0.0000
   5327 H          59.6237   25.6707   21.8292 H       767      M_A    0.0000
   5328 H          58.1654   25.9451   22.2070 H       767      M_A    0.0000
   5329 C          58.3778   25.1751   20.4832 C.3     768      M_A    0.0000
   5330 C          57.0648   25.2629   20.2687 C.3     768      M_A    0.0000
   5331 H          58.8550   25.3985   19.6874 H       768      M_A    0.0000
   5332 H          58.6143   24.2766   20.7015 H       768      M_A    0.0000
   5333 H          56.5943   25.2236   21.0982 H       768      M_A    0.0000
   5334 H          56.8534   26.1054   19.8734 H       768      M_A    0.0000
   5335 C          56.6062   24.2685   19.4558 C.3     769      M_A    0.0000
   5336 C          56.6169   24.6216   18.1701 C.3     769      M_A    0.0000
   5337 H          57.1448   23.4916   19.5863 H       769      M_A    0.0000
   5338 H          55.7203   24.0360   19.7239 H       769      M_A    0.0000
   5339 H          57.5078   24.8234   17.8936 H       769      M_A    0.0000
   5340 H          56.3199   23.8941   17.6285 H       769      M_A    0.0000
   5341 C          55.8247   25.7043   17.9249 C.3     770      M_A    0.0000
   5342 C          55.5805   25.8675   16.6243 C.3     770      M_A    0.0000
   5343 H          55.0044   25.5994   18.4012 H       770      M_A    0.0000
   5344 H          56.2493   26.4825   18.2783 H       770      M_A    0.0000
   5345 H          56.1843   26.5082   16.2558 H       770      M_A    0.0000
   5346 H          55.7314   25.0487   16.1577 H       770      M_A    0.0000
   5347 C          54.3027   26.2801   16.3861 C.3     771      M_A    0.0000
   5348 C          53.9509   26.1240   15.1096 C.3     771      M_A    0.0000
   5349 H          53.7105   25.7891   16.9511 H       771      M_A    0.0000
   5350 H          54.2237   27.1974   16.6375 H       771      M_A    0.0000
   5351 H          53.2682   26.7499   14.8793 H       771      M_A    0.0000
   5352 H          54.6946   26.3078   14.5404 H       771      M_A    0.0000
   5353 C          53.4983   24.8643   14.8485 C.3     772      M_A    0.0000
   5354 C          53.7523   24.4857   13.5955 C.3     772      M_A    0.0000
   5355 H          53.9056   24.2577   15.4625 H       772      M_A    0.0000
   5356 H          52.5592   24.8340   15.0156 H       772      M_A    0.0000
   5357 H          53.1217   24.8830   12.9994 H       772      M_A    0.0000
   5358 H          54.6146   24.7953   13.3285 H       772      M_A    0.0000
   5359 C          53.7057   23.1310   13.4454 C.3     773      M_A    0.0000
   5360 C          54.7170   22.6691   12.7093 C.3     773      M_A    0.0000
   5361 H          53.7176   22.7252   14.3092 H       773      M_A    0.0000
   5362 H          52.8733   22.8945   13.0430 H       773      M_A    0.0000
   5363 H          54.4499   22.5951   11.7961 H       773      M_A    0.0000
   5364 H          55.4463   23.2842   12.7326 H       773      M_A    0.0000
   5365 C          55.1551   21.4513   13.1392 C.3     774      M_A    0.0000
   5366 C          55.8494   20.8045   12.2025 C.3     774      M_A    0.0000
   5367 H          55.6928   21.5751   13.9180 H       774      M_A    0.0000
   5368 H          54.4016   20.9301   13.4065 H       774      M_A    0.0000
   5369 H          55.2727   20.5473   11.4868 H       774      M_A    0.0000
   5370 H          56.5103   21.3821   11.8278 H       774      M_A    0.0000
   5371 C          56.4655   19.6909   12.6924 C.3     775      M_A    0.0000
   5372 C          55.8821   18.5664   12.2766 C.3     775      M_A    0.0000
   5373 H          57.3814   19.7029   12.4241 H       775      M_A    0.0000
   5374 H          56.4587   19.7299   13.6459 H       775      M_A    0.0000
   5375 H          55.3656   18.7363   11.4922 H       775      M_A    0.0000
   5376 H          56.5450   17.9240   12.0343 H       775      M_A    0.0000
   5377 C          55.0704   18.0229   13.2282 C.3     776      M_A    0.0000
   5378 C          53.8352   17.8064   12.7751 C.2     776      M_A    0.0000
   5379 H          55.4563   17.2040   13.5305 H       776      M_A    0.0000
   5380 H          55.0447   18.6083   13.9815 H       776      M_A    0.0000
   5381 H          53.4493   18.6253   12.4728 H       776      M_A    0.0000
   5382 H          53.8609   17.2210   12.0218 H       776      M_A    0.0000
   5383 C          57.1846   48.4342   33.4238 C.2     777      M_A    0.0000
   5384 C          56.1429   47.3673   33.7781 C.3     777      M_A    0.0000
   5385 H          57.7919   48.0994   32.5737 H       777      M_A    0.0000
   5386 H          57.8737   48.5810   34.2648 H       777      M_A    0.0000
   5387 H          55.6228   47.6422   34.7041 H       777      M_A    0.0000
   5388 H          55.3792   47.3117   32.9925 H       777      M_A    0.0000
   5389 C          56.7840   45.9485   33.9607 C.3     778      M_A    0.0000
   5390 C          57.3521   45.1618   32.6325 C.3     778      M_A    0.0000
   5391 H          57.6648   46.1572   34.7137 H       778      M_A    0.0000
   5392 H          56.0065   45.2713   34.5293 H       778      M_A    0.0000
   5393 H          56.4593   44.8758   31.9200 H       778      M_A    0.0000
   5394 H          58.0625   45.8705   32.0165 H       778      M_A    0.0000
   5395 C          58.1962   43.7625   33.0326 C.3     779      M_A    0.0000
   5396 C          58.3726   42.7516   31.7469 C.3     779      M_A    0.0000
   5397 H          59.2524   44.0645   33.4565 H       779      M_A    0.0000
   5398 H          57.6270   43.2119   33.9039 H       779      M_A    0.0000
   5399 H          57.4461   42.0289   31.6715 H       779      M_A    0.0000
   5400 H          58.3998   43.3719   30.7464 H       779      M_A    0.0000
   5401 C          59.7746   41.8272   31.8501 C.3     780      M_A    0.0000
   5402 C          59.9763   40.8523   30.5407 C.3     780      M_A    0.0000
   5403 H          60.6979   42.5493   31.9620 H       780      M_A    0.0000
   5404 H          59.7307   41.1797   32.8326 H       780      M_A    0.0000
   5405 H          60.9682   41.1375   29.9740 H       780      M_A    0.0000
   5406 H          60.0939   39.7325   30.8853 H       780      M_A    0.0000
   5407 C          58.6876   40.9558   29.4640 C.3     781      M_A    0.0000
   5408 C          59.1725   40.8289   27.8973 C.3     781      M_A    0.0000
   5409 H          57.9126   40.1062   29.7169 H       781      M_A    0.0000
   5410 H          58.1330   41.9806   29.6333 H       781      M_A    0.0000
   5411 H          60.0143   41.6201   27.6698 H       781      M_A    0.0000
   5412 H          59.6452   39.7677   27.7056 H       781      M_A    0.0000
   5413 C          57.9040   41.0608   26.8165 C.3     782      M_A    0.0000
   5414 C          58.3221   42.0450   25.5665 C.3     782      M_A    0.0000
   5415 H          57.5582   40.0125   26.4067 H       782      M_A    0.0000
   5416 H          56.9873   41.5152   27.3991 H       782      M_A    0.0000
   5417 H          58.4763   43.1462   25.9538 H       782      M_A    0.0000
   5418 H          59.3505   41.7007   25.1080 H       782      M_A    0.0000
   5419 C          57.1618   42.0562   24.3481 C.3     783      M_A    0.0000
   5420 C          57.1632   43.4649   23.4988 C.3     783      M_A    0.0000
   5421 H          57.3619   41.1486   23.6252 H       783      M_A    0.0000
   5422 H          56.1029   41.8769   24.8308 H       783      M_A    0.0000
   5423 H          56.6162   44.3073   24.1132 H       783      M_A    0.0000
   5424 H          58.2687   43.8333   23.3298 H       783      M_A    0.0000
   5425 C          56.4092   43.3083   22.0029 C.3     784      M_A    0.0000
   5426 C          54.9359   44.0390   21.9678 C.3     784      M_A    0.0000
   5427 H          57.1084   43.7695   21.1753 H       784      M_A    0.0000
   5428 H          56.2980   42.1633   21.7519 H       784      M_A    0.0000
   5429 H          54.3585   43.7367   20.9872 H       784      M_A    0.0000
   5430 H          54.2804   43.6697   22.8736 H       784      M_A    0.0000
   5431 C          55.0542   45.7161   22.0323 C.3     785      M_A    0.0000
   5432 C          54.0613   46.4533   20.9476 C.3     785      M_A    0.0000
   5433 H          54.7955   46.0732   23.1241 H       785      M_A    0.0000
   5434 H          56.1724   46.0257   21.8314 H       785      M_A    0.0000
   5435 H          54.3039   46.0780   19.8582 H       785      M_A    0.0000
   5436 H          52.9409   46.1628   21.1636 H       785      M_A    0.0000
   5437 C          54.2046   48.1292   20.9884 C.3     786      M_A    0.0000
   5438 C          54.6134   48.7557   19.5234 C.3     786      M_A    0.0000
   5439 H          53.1838   48.5886   21.3533 H       786      M_A    0.0000
   5440 H          55.0136   48.4214   21.7924 H       786      M_A    0.0000
   5441 H          53.7398   48.5840   18.7528 H       786      M_A    0.0000
   5442 H          54.7637   49.9203   19.6100 H       786      M_A    0.0000
   5443 C          56.0218   48.0715   18.9078 C.3     787      M_A    0.0000
   5444 C          57.3726   48.6635   19.6364 C.3     787      M_A    0.0000
   5445 H          55.9679   46.9034   19.0454 H       787      M_A    0.0000
   5446 H          56.0668   48.2737   17.7487 H       787      M_A    0.0000
   5447 H          57.8378   49.5265   18.9843 H       787      M_A    0.0000
   5448 H          57.0946   49.1386   20.6773 H       787      M_A    0.0000
   5449 C          58.5400   47.4760   19.8766 C.3     788      M_A    0.0000
   5450 C          59.7237   47.9652   20.9088 C.2     788      M_A    0.0000
   5451 H          58.0159   46.5074   20.2933 H       788      M_A    0.0000
   5452 H          59.0068   47.1864   18.8352 H       788      M_A    0.0000
   5453 H          60.2478   48.9338   20.4921 H       788      M_A    0.0000
   5454 H          59.2569   48.2548   21.9503 H       788      M_A    0.0000
   5455 C          73.4693   56.1753   26.4745 C.2     789      M_A    0.0000
   5456 C          72.5351   55.4686   25.8455 C.3     789      M_A    0.0000
   5457 H          73.0676   56.7387   27.1279 H       789      M_A    0.0000
   5458 H          73.9161   56.7468   25.8585 H       789      M_A    0.0000
   5459 H          72.9388   54.7690   25.3424 H       789      M_A    0.0000
   5460 H          71.9592   55.0526   26.4787 H       789      M_A    0.0000
   5461 C          71.7858   56.2346   25.0083 C.3     790      M_A    0.0000
   5462 C          70.7054   55.5947   24.5715 C.3     790      M_A    0.0000
   5463 H          71.5317   57.0298   25.4651 H       790      M_A    0.0000
   5464 H          72.3260   56.5029   24.2722 H       790      M_A    0.0000
   5465 H          70.9527   54.7572   24.1934 H       790      M_A    0.0000
   5466 H          70.1223   55.4044   25.2992 H       790      M_A    0.0000
   5467 C          70.0232   56.3121   23.6393 C.3     791      M_A    0.0000
   5468 C          69.0127   55.6253   23.1151 C.3     791      M_A    0.0000
   5469 H          69.7000   57.1110   24.0431 H       791      M_A    0.0000
   5470 H          70.6276   56.5776   22.9539 H       791      M_A    0.0000
   5471 H          69.3096   54.7620   22.8463 H       791      M_A    0.0000
   5472 H          68.3357   55.4897   23.7701 H       791      M_A    0.0000
   5473 C          68.4642   56.2541   22.0414 C.3     792      M_A    0.0000
   5474 C          67.5021   55.5338   21.4729 C.3     792      M_A    0.0000
   5475 H          68.1194   57.0956   22.3218 H       792      M_A    0.0000
   5476 H          69.1514   56.4373   21.4091 H       792      M_A    0.0000
   5477 H          67.8266   54.6644   21.2621 H       792      M_A    0.0000
   5478 H          66.7800   55.4158   22.0815 H       792      M_A    0.0000
   5479 C          67.0280   56.1121   20.3371 C.3     793      M_A    0.0000
   5480 C          65.7073   56.0039   20.2300 C.3     793      M_A    0.0000
   5481 H          67.2819   57.0292   20.3309 H       793      M_A    0.0000
   5482 H          67.4505   55.7065   19.5870 H       793      M_A    0.0000
   5483 H          65.4434   55.0973   20.3486 H       793      M_A    0.0000
   5484 H          65.2820   56.5046   20.9186 H       793      M_A    0.0000
   5485 C          65.2505   56.4393   19.0255 C.3     794      M_A    0.0000
   5486 C          64.7544   55.4510   18.2875 C.3     794      M_A    0.0000
   5487 H          64.5846   57.1033   19.1717 H       794      M_A    0.0000
   5488 H          65.9644   56.8656   18.5626 H       794      M_A    0.0000
   5489 H          65.0381   55.5443   17.3839 H       794      M_A    0.0000
   5490 H          65.0896   54.6148   18.5942 H       794      M_A    0.0000
   5491 C          63.3953   55.4165   18.3188 C.3     795      M_A    0.0000
   5492 C          62.8515   56.0295   17.2719 C.3     795      M_A    0.0000
   5493 H          63.1121   54.5085   18.3486 H       795      M_A    0.0000
   5494 H          63.0967   55.8225   19.1260 H       795      M_A    0.0000
   5495 H          62.1092   56.5555   17.5510 H       795      M_A    0.0000
   5496 H          63.4797   56.6286   16.8820 H       795      M_A    0.0000
   5497 C          62.4339   55.1521   16.3206 C.3     796      M_A    0.0000
   5498 C          63.1237   55.2687   15.1900 C.3     796      M_A    0.0000
   5499 H          62.5148   54.2676   16.6624 H       796      M_A    0.0000
   5500 H          61.5082   55.2973   16.1545 H       796      M_A    0.0000
   5501 H          62.5364   55.2191   14.4428 H       796      M_A    0.0000
   5502 H          63.5444   56.1214   15.1508 H       796      M_A    0.0000
   5503 C          64.0747   54.3047   15.0647 C.3     797      M_A    0.0000
   5504 C          64.9664   54.5960   14.1226 C.3     797      M_A    0.0000
   5505 H          64.5106   54.1931   15.9033 H       797      M_A    0.0000
   5506 H          63.6484   53.4774   14.8660 H       797      M_A    0.0000
   5507 H          64.7363   54.1588   13.3092 H       797      M_A    0.0000
   5508 H          64.9575   55.5304   13.9426 H       797      M_A    0.0000
   5509 C          66.2274   54.2295   14.4756 C.3     798      M_A    0.0000
   5510 C          66.9789   55.2725   14.8147 C.3     798      M_A    0.0000
   5511 H          66.1767   53.6146   15.2001 H       798      M_A    0.0000
   5512 H          66.6261   53.7628   13.7484 H       798      M_A    0.0000
   5513 H          67.2099   55.7741   14.0397 H       798      M_A    0.0000
   5514 H          66.4880   55.8576   15.3825 H       798      M_A    0.0000
   5515 C          68.1209   54.8995   15.4519 C.3     799      M_A    0.0000
   5516 C          67.9849   54.9055   16.7744 C.3     799      M_A    0.0000
   5517 H          68.3689   54.0306   15.1533 H       799      M_A    0.0000
   5518 H          68.8226   55.4880   15.1933 H       799      M_A    0.0000
   5519 H          68.8387   54.9693   17.1899 H       799      M_A    0.0000
   5520 H          67.4899   55.6707   17.0481 H       799      M_A    0.0000
   5521 C          67.3567   53.7900   17.2329 C.3     800      M_A    0.0000
   5522 C          68.1122   53.0989   18.0810 C.3     800      M_A    0.0000
   5523 H          66.5438   54.0476   17.6554 H       800      M_A    0.0000
   5524 H          67.1179   53.2452   16.4901 H       800      M_A    0.0000
   5525 H          68.6861   52.5103   17.6016 H       800      M_A    0.0000
   5526 H          68.6745   53.6888   18.5724 H       800      M_A    0.0000
   5527 C          67.3695   52.3703   18.9567 C.3     801      M_A    0.0000
   5528 C          67.1005   51.1520   18.4973 C.3     801      M_A    0.0000
   5529 H          67.8392   52.3113   19.7823 H       801      M_A    0.0000
   5530 H          66.5601   52.8377   19.1355 H       801      M_A    0.0000
   5531 H          67.7125   50.9214   17.8061 H       801      M_A    0.0000
   5532 H          67.2155   50.5094   19.1898 H       801      M_A    0.0000
   5533 C          65.8339   51.0521   18.0126 C.3     802      M_A    0.0000
   5534 C          65.7585   50.2387   16.9636 C.3     802      M_A    0.0000
   5535 H          65.2630   50.7417   18.7079 H       802      M_A    0.0000
   5536 H          65.5271   51.9209   17.7746 H       802      M_A    0.0000
   5537 H          66.6180   50.1358   16.5681 H       802      M_A    0.0000
   5538 H          65.4802   49.3723   17.2419 H       802      M_A    0.0000
   5539 C          64.8931   50.6948   16.0190 C.3     803      M_A    0.0000
   5540 C          63.6408   50.3186   16.2593 C.2     803      M_A    0.0000
   5541 H          64.9479   51.6443   15.9856 H       803      M_A    0.0000
   5542 H          65.1722   50.3749   15.1673 H       803      M_A    0.0000
   5543 H          63.5860   49.3691   16.2926 H       803      M_A    0.0000
   5544 H          63.3617   50.6385   17.1110 H       803      M_A    0.0000
   5545 C          90.3573   37.1073   33.9627 C.2     804      M_A    0.0000
   5546 C          90.9631   35.9899   33.1064 C.3     804      M_A    0.0000
   5547 H          89.8096   36.6769   34.8103 H       804      M_A    0.0000
   5548 H          89.6287   37.6790   33.3745 H       804      M_A    0.0000
   5549 H          91.9086   36.3262   32.6632 H       804      M_A    0.0000
   5550 H          91.2005   35.1218   33.7338 H       804      M_A    0.0000
   5551 C          90.0000   35.5340   31.9566 C.3     805      M_A    0.0000
   5552 C          89.0072   34.4627   32.4210 C.3     805      M_A    0.0000
   5553 H          89.4586   36.4108   31.5803 H       805      M_A    0.0000
   5554 H          90.6014   35.1530   31.1219 H       805      M_A    0.0000
   5555 H          89.4722   33.4705   32.3677 H       805      M_A    0.0000
   5556 H          88.7388   34.6287   33.4717 H       805      M_A    0.0000
   5557 C          87.6971   34.4537   31.5602 C.3     806      M_A    0.0000
   5558 C          86.4629   34.0721   32.3849 C.3     806      M_A    0.0000
   5559 H          87.5597   35.4469   31.1150 H       806      M_A    0.0000
   5560 H          87.8256   33.7504   30.7280 H       806      M_A    0.0000
   5561 H          86.2429   33.0045   32.2608 H       806      M_A    0.0000
   5562 H          86.6598   34.2312   33.4523 H       806      M_A    0.0000
   5563 C          85.1960   34.8998   31.9758 C.3     807      M_A    0.0000
   5564 C          84.1547   34.0451   31.2449 C.3     807      M_A    0.0000
   5565 H          84.7546   35.3400   32.8786 H       807      M_A    0.0000
   5566 H          85.5103   35.7360   31.3390 H       807      M_A    0.0000
   5567 H          84.6237   33.5175   30.4051 H       807      M_A    0.0000
   5568 H          83.7595   33.2753   31.9193 H       807      M_A    0.0000
   5569 C          82.9599   34.9012   30.7000 C.3     808      M_A    0.0000
   5570 C          82.8009   34.7758   29.1808 C.3     808      M_A    0.0000
   5571 H          82.0383   34.5821   31.2023 H       808      M_A    0.0000
   5572 H          83.1220   35.9505   30.9759 H       808      M_A    0.0000
   5573 H          83.7372   34.4209   28.7326 H       808      M_A    0.0000
   5574 H          82.0345   34.0277   28.9432 H       808      M_A    0.0000
   5575 C          82.4038   36.1363   28.5107 C.3     809      M_A    0.0000
   5576 C          80.8888   36.3679   28.5199 C.3     809      M_A    0.0000
   5577 H          82.9123   36.9523   29.0390 H       809      M_A    0.0000
   5578 H          82.7796   36.1458   27.4801 H       809      M_A    0.0000
   5579 H          80.4058   35.7274   27.7716 H       809      M_A    0.0000
   5580 H          80.4708   36.0847   29.4939 H       809      M_A    0.0000
   5581 C          80.5143   37.8611   28.2242 C.3     810      M_A    0.0000
   5582 C          79.3779   38.3636   29.1215 C.3     810      M_A    0.0000
   5583 H          81.4067   38.4838   28.3634 H       810      M_A    0.0000
   5584 H          80.2284   37.9517   27.1689 H       810      M_A    0.0000
   5585 H          78.4075   38.1016   28.6818 H       810      M_A    0.0000
   5586 H          79.4243   37.8691   30.0997 H       810      M_A    0.0000
   5587 C          79.4326   39.9154   29.3367 C.3     811      M_A    0.0000
   5588 C          78.4161   40.6591   28.4635 C.3     811      M_A    0.0000
   5589 H          79.2483   40.1322   30.3962 H       811      M_A    0.0000
   5590 H          80.4478   40.2675   29.1151 H       811      M_A    0.0000
   5591 H          77.4179   40.2232   28.5940 H       811      M_A    0.0000
   5592 H          78.3456   41.7077   28.7783 H       811      M_A    0.0000
   5593 C          78.7928   40.6125   26.9425 C.3     812      M_A    0.0000
   5594 C          77.7953   41.3858   26.0730 C.3     812      M_A    0.0000
   5595 H          79.8014   41.0249   26.8152 H       812      M_A    0.0000
   5596 H          78.8382   39.5645   26.6214 H       812      M_A    0.0000
   5597 H          78.3061   42.2056   25.5530 H       812      M_A    0.0000
   5598 H          77.3839   40.7284   25.2971 H       812      M_A    0.0000
   5599 C          76.6115   41.9795   26.9119 C.3     813      M_A    0.0000
   5600 C          75.5054   42.5613   26.0248 C.3     813      M_A    0.0000
   5601 H          76.2023   41.1898   27.5542 H       813      M_A    0.0000
   5602 H          77.0057   42.7558   27.5795 H       813      M_A    0.0000
   5603 H          75.6542   43.6407   25.8973 H       813      M_A    0.0000
   5604 H          75.5533   42.1162   25.0233 H       813      M_A    0.0000
   5605 C          74.0759   42.3151   26.6193 C.3     814      M_A    0.0000
   5606 C          72.9975   42.2527   25.5321 C.3     814      M_A    0.0000
   5607 H          74.0874   41.3793   27.1918 H       814      M_A    0.0000
   5608 H          73.8461   43.1173   27.3315 H       814      M_A    0.0000
   5609 H          73.1740   43.0335   24.7819 H       814      M_A    0.0000
   5610 H          73.0498   41.2920   25.0050 H       814      M_A    0.0000
   5611 C          71.5537   42.4305   26.1164 C.3     815      M_A    0.0000
   5612 C          70.6965   41.4097   25.5938 C.3     815      M_A    0.0000
   5613 H          71.6372   42.3328   27.1332 H       815      M_A    0.0000
   5614 H          71.1464   43.3547   25.9420 H       815      M_A    0.0000
   5615 H          71.2560   40.6223   25.2513 H       815      M_A    0.0000
   5616 H          70.0947   41.0416   26.3373 H       815      M_A    0.0000
   5617 C          69.8522   41.8992   24.5019 C.3     816      M_A    0.0000
   5618 C          69.2809   40.8318   23.7374 C.3     816      M_A    0.0000
   5619 H          69.1098   42.4858   24.8959 H       816      M_A    0.0000
   5620 H          70.4146   42.5041   23.8952 H       816      M_A    0.0000
   5621 H          68.6697   40.2623   24.3311 H       816      M_A    0.0000
   5622 H          68.6931   41.2114   22.9885 H       816      M_A    0.0000
   5623 C          70.3019   39.9663   23.1433 C.3     817      M_A    0.0000
   5624 C          69.7776   39.1550   22.0864 C.3     817      M_A    0.0000
   5625 H          71.0665   40.5510   22.7912 H       817      M_A    0.0000
   5626 H          70.6998   39.3725   23.8778 H       817      M_A    0.0000
   5627 H          69.4273   38.2690   22.4643 H       817      M_A    0.0000
   5628 H          68.9792   39.6236   21.6468 H       817      M_A    0.0000
   5629 C          70.7801   38.8663   21.0587 C.3     818      M_A    0.0000
   5630 C          70.3491   37.8457   20.1517 C.3     818      M_A    0.0000
   5631 H          70.9846   39.7293   20.5451 H       818      M_A    0.0000
   5632 H          71.6517   38.5834   21.5176 H       818      M_A    0.0000
   5633 H          70.9559   37.8302   19.3260 H       818      M_A    0.0000
   5634 H          70.4308   36.9249   20.5943 H       818      M_A    0.0000
   5635 C          68.9643   38.0389   19.7162 C.3     819      M_A    0.0000
   5636 C          68.3112   36.8000   19.4185 C.3     819      M_A    0.0000
   5637 H          68.4533   38.5377   20.4513 H       819      M_A    0.0000
   5638 H          68.9593   38.6460   18.8905 H       819      M_A    0.0000
   5639 H          67.6840   36.9172   18.6165 H       819      M_A    0.0000
   5640 H          69.0034   36.0935   19.1500 H       819      M_A    0.0000
   5641 C          67.5364   36.2942   20.5537 C.3     820      M_A    0.0000
   5642 C          67.4630   34.8644   20.5666 C.3     820      M_A    0.0000
   5643 H          67.9636   36.6320   21.4219 H       820      M_A    0.0000
   5644 H          66.5936   36.6942   20.5145 H       820      M_A    0.0000
   5645 H          67.3012   34.5122   19.6178 H       820      M_A    0.0000
   5646 H          68.3556   34.4694   20.8788 H       820      M_A    0.0000
   5647 C          66.3969   34.3712   21.4413 C.3     821      M_A    0.0000
   5648 C          66.4502   32.9509   21.6139 C.3     821      M_A    0.0000
   5649 H          66.4726   34.8388   22.3501 H       821      M_A    0.0000
   5650 H          65.4919   34.6433   21.0447 H       821      M_A    0.0000
   5651 H          67.3300   32.6847   22.0671 H       821      M_A    0.0000
   5652 H          65.6947   32.6437   22.2347 H       821      M_A    0.0000
   5653 C          66.3379   32.2326   20.3426 C.3     822      M_A    0.0000
   5654 C          67.0749   31.0051   20.3459 C.3     822      M_A    0.0000
   5655 H          65.3477   32.0475   20.1541 H       822      M_A    0.0000
   5656 H          66.6722   32.8412   19.5887 H       822      M_A    0.0000
   5657 H          67.9680   31.1327   20.8324 H       822      M_A    0.0000
   5658 H          66.5584   30.2864   20.8627 H       822      M_A    0.0000
   5659 C          67.3408   30.5137   18.9922 C.3     823      M_A    0.0000
   5660 C          67.1075   29.1063   18.8703 C.3     823      M_A    0.0000
   5661 H          66.7480   31.0267   18.3322 H       823      M_A    0.0000
   5662 H          68.3117   30.7315   18.7465 H       823      M_A    0.0000
   5663 H          67.9346   28.5850   19.1776 H       823      M_A    0.0000
   5664 H          66.3366   28.8234   19.4836 H       823      M_A    0.0000
   5665 C          66.7859   28.7140   17.4964 C.3     824      M_A    0.0000
   5666 C          65.9907   27.5244   17.4438 C.3     824      M_A    0.0000
   5667 H          66.2924   29.4871   17.0391 H       824      M_A    0.0000
   5668 H          67.6598   28.5757   16.9792 H       824      M_A    0.0000
   5669 H          65.0523   27.7125   17.8104 H       824      M_A    0.0000
   5670 H          65.8720   27.2239   16.4712 H       824      M_A    0.0000
   5671 C          66.5847   26.4255   18.2081 C.3     825      M_A    0.0000
   5672 C          65.7596   25.2554   18.2067 C.3     825      M_A    0.0000
   5673 H          67.5046   26.2073   17.8125 H       825      M_A    0.0000
   5674 H          66.7453   26.7411   19.1699 H       825      M_A    0.0000
   5675 H          64.8424   25.4717   18.6096 H       825      M_A    0.0000
   5676 H          65.5924   24.9444   17.2445 H       825      M_A    0.0000
   5677 C          66.3587   24.1528   18.9617 C.3     826      M_A    0.0000
   5678 C          66.9043   23.1426   18.1062 C.3     826      M_A    0.0000
   5679 H          67.0910   24.5297   19.5717 H       826      M_A    0.0000
   5680 H          65.6453   23.7462   19.5749 H       826      M_A    0.0000
   5681 H          66.2615   22.9543   17.3305 H       826      M_A    0.0000
   5682 H          67.7808   23.4713   17.6889 H       826      M_A    0.0000
   5683 C          67.1620   21.8903   18.8203 C.3     827      M_A    0.0000
   5684 C          68.5491   21.5355   18.8105 C.3     827      M_A    0.0000
   5685 H          66.8306   21.9862   19.7854 H       827      M_A    0.0000
   5686 H          66.6055   21.1445   18.3907 H       827      M_A    0.0000
   5687 H          69.0107   21.9448   17.9921 H       827      M_A    0.0000
   5688 H          69.0167   21.9225   19.6363 H       827      M_A    0.0000
   5689 C          68.7509   20.0852   18.7901 C.3     828      M_A    0.0000
   5690 C          70.1266   19.7312   18.6107 C.3     828      M_A    0.0000
   5691 H          68.3980   19.6902   19.6675 H       828      M_A    0.0000
   5692 H          68.1836   19.6833   18.0371 H       828      M_A    0.0000
   5693 H          70.6196   20.4785   18.1117 H       828      M_A    0.0000
   5694 H          70.5859   19.6329   19.5216 H       828      M_A    0.0000
   5695 C          70.2853   18.4810   17.8647 C.3     829      M_A    0.0000
   5696 C          71.4663   18.4782   17.0552 C.3     829      M_A    0.0000
   5697 H          70.3129   17.7011   18.5291 H       829      M_A    0.0000
   5698 H          69.4570   18.3388   17.2782 H       829      M_A    0.0000
   5699 H          71.6206   19.4093   16.6555 H       829      M_A    0.0000
   5700 H          72.2868   18.2657   17.6314 H       829      M_A    0.0000
   5701 C          71.3898   17.5033   15.9651 C.3     830      M_A    0.0000
   5702 C          72.0839   17.9443   14.7930 C.3     830      M_A    0.0000
   5703 H          71.7795   16.6130   16.2902 H       830      M_A    0.0000
   5704 H          70.4038   17.3303   15.7453 H       830      M_A    0.0000
   5705 H          71.4864   18.5723   14.2461 H       830      M_A    0.0000
   5706 H          72.9136   18.4843   15.0582 H       830      M_A    0.0000
   5707 C          72.4997   16.8279   13.9412 C.3     831      M_A    0.0000
   5708 C          71.8074   16.8144   12.6880 C.3     831      M_A    0.0000
   5709 H          73.5105   16.8912   13.7837 H       831      M_A    0.0000
   5710 H          72.3346   15.9499   14.4434 H       831      M_A    0.0000
   5711 H          70.8930   16.3645   12.7965 H       831      M_A    0.0000
   5712 H          71.6282   17.7737   12.3752 H       831      M_A    0.0000
   5713 C          72.5590   16.1108   11.6464 C.3     832      M_A    0.0000
   5714 C          71.9895   14.8347   11.3345 C.3     832      M_A    0.0000
   5715 H          72.5878   16.6975   10.8065 H       832      M_A    0.0000
   5716 H          73.5283   15.9962   11.9587 H       832      M_A    0.0000
   5717 H          71.8890   14.2766   12.1883 H       832      M_A    0.0000
   5718 H          71.0476   14.9549   10.9489 H       832      M_A    0.0000
   5719 C          72.8009   14.0848   10.3732 C.3     833      M_A    0.0000
   5720 C          72.9837   12.7200   10.7655 C.3     833      M_A    0.0000
   5721 H          72.3491   14.1289    9.4543 H       833      M_A    0.0000
   5722 H          73.7102   14.5475   10.2766 H       833      M_A    0.0000
   5723 H          73.0595   12.6547   11.7855 H       833      M_A    0.0000
   5724 H          72.1663   12.1641   10.4950 H       833      M_A    0.0000
   5725 C          74.1792   12.1250   10.1642 C.3     834      M_A    0.0000
   5726 C          74.2949   10.7279   10.4550 C.3     834      M_A    0.0000
   5727 H          74.1468   12.2715    9.1504 H       834      M_A    0.0000
   5728 H          75.0053   12.6250   10.5075 H       834      M_A    0.0000
   5729 H          73.8188   10.5118   11.3365 H       834      M_A    0.0000
   5730 H          73.8293   10.1775    9.7265 H       834      M_A    0.0000
   5731 C          75.6905   10.2953   10.5539 C.3     835      M_A    0.0000
   5732 C          76.1168    9.5689    9.3960 C.3     835      M_A    0.0000
   5733 H          76.2833   11.1203   10.6892 H       835      M_A    0.0000
   5734 H          75.7979    9.7151   11.3919 H       835      M_A    0.0000
   5735 H          75.7634    8.6077    9.4343 H       835      M_A    0.0000
   5736 H          75.7235    9.9936    8.5502 H       835      M_A    0.0000
   5737 C          77.5754    9.5309    9.2705 C.3     836      M_A    0.0000
   5738 C          78.0128    9.8121    7.9365 C.3     836      M_A    0.0000
   5739 H          77.9809   10.2089    9.9235 H       836      M_A    0.0000
   5740 H          77.9081    8.6064    9.5619 H       836      M_A    0.0000
   5741 H          78.1888    8.9371    7.4326 H       836      M_A    0.0000
   5742 H          77.2764   10.3051    7.4217 H       836      M_A    0.0000
   5743 C          79.2311   10.6244    7.9114 C.3     837      M_A    0.0000
   5744 C          80.4169    9.8272    8.0025 C.3     837      M_A    0.0000
   5745 H          79.2433   11.1750    7.0470 H       837      M_A    0.0000
   5746 H          79.1975   11.2942    8.6864 H       837      M_A    0.0000
   5747 H          80.3184    9.1352    8.7520 H       837      M_A    0.0000
   5748 H          80.5548    9.3019    7.1333 H       837      M_A    0.0000
   5749 C          81.6107   10.6354    8.2600 C.3     838      M_A    0.0000
   5750 C          82.3805   10.1319    9.3573 C.3     838      M_A    0.0000
   5751 H          82.1834   10.6588    7.4104 H       838      M_A    0.0000
   5752 H          81.3219   11.6008    8.4470 H       838      M_A    0.0000
   5753 H          81.7587    9.8376   10.1170 H       838      M_A    0.0000
   5754 H          82.9043    9.3003    9.0668 H       838      M_A    0.0000
   5755 C          83.3226   11.1256    9.8765 C.3     839      M_A    0.0000
   5756 C          84.6615   10.6223    9.9408 C.3     839      M_A    0.0000
   5757 H          83.2882   11.9574    9.2787 H       839      M_A    0.0000
   5758 H          83.0126   11.4197   10.8081 H       839      M_A    0.0000
   5759 H          84.7386    9.9227   10.6858 H       839      M_A    0.0000
   5760 H          84.9007   10.1471    9.0648 H       839      M_A    0.0000
   5761 C          85.6418   11.6824   10.1856 C.3     840      M_A    0.0000
   5762 C          86.9485   11.1619   10.4533 C.3     840      M_A    0.0000
   5763 H          85.6705   12.3009    9.3689 H       840      M_A    0.0000
   5764 H          85.3220   12.2522   10.9752 H       840      M_A    0.0000
   5765 H          86.8912   10.4060   11.1431 H       840      M_A    0.0000
   5766 H          87.3454   10.7533    9.6013 H       840      M_A    0.0000
   5767 C          87.8635   12.1898   10.9544 C.3     841      M_A    0.0000
   5768 C          88.9855   11.6280   11.6439 C.3     841      M_A    0.0000
   5769 H          88.1851   12.7589   10.1651 H       841      M_A    0.0000
   5770 H          87.3459   12.8171   11.5780 H       841      M_A    0.0000
   5771 H          88.6941   11.2766   12.5615 H       841      M_A    0.0000
   5772 H          89.3513   10.8243   11.1236 H       841      M_A    0.0000
   5773 C          90.0650   12.5997   11.8316 C.3     842      M_A    0.0000
   5774 C          90.3521   12.8314   13.2151 C.3     842      M_A    0.0000
   5775 H          90.9035   12.2589   11.3510 H       842      M_A    0.0000
   5776 H          89.8011   13.4788   11.3755 H       842      M_A    0.0000
   5777 H          91.1548   13.4620   13.3066 H       842      M_A    0.0000
   5778 H          89.5584   13.2980   13.6654 H       842      M_A    0.0000
   5779 C          90.6418   11.5906   13.9371 C.3     843      M_A    0.0000
   5780 C          90.4318   11.7218   15.3474 C.3     843      M_A    0.0000
   5781 H          90.0489   10.8438   13.5616 H       843      M_A    0.0000
   5782 H          91.6119   11.3184   13.7501 H       843      M_A    0.0000
   5783 H          90.9014   10.9588   15.8450 H       843      M_A    0.0000
   5784 H          90.8497   12.5945   15.6852 H       843      M_A    0.0000
   5785 C          89.0106   11.7114   15.7003 C.3     844      M_A    0.0000
   5786 C          88.7011   10.7105   16.6763 C.3     844      M_A    0.0000
   5787 H          88.7509   12.6381   16.0528 H       844      M_A    0.0000
   5788 H          88.4602   11.5551   14.8500 H       844      M_A    0.0000
   5789 H          89.5096   10.5524   17.2860 H       844      M_A    0.0000
   5790 H          87.9366   11.0316   17.2787 H       844      M_A    0.0000
   5791 C          88.3161    9.4376   16.0630 C.3     845      M_A    0.0000
   5792 C          87.2824    8.7723   16.7971 C.2     845      M_A    0.0000
   5793 H          88.0068    9.6141   15.1020 H       845      M_A    0.0000
   5794 H          89.1445    8.8374   16.0001 H       845      M_A    0.0000
   5795 H          87.5917    8.5958   17.7581 H       845      M_A    0.0000
   5796 H          86.4541    9.3725   16.8601 H       845      M_A    0.0000
   5797 C          79.9446   52.9769   45.9264 C.2     846      M_A    0.0000
   5798 C          80.2558   52.3741   45.0439 C.3     846      M_A    0.0000
   5799 H          80.0850   52.5713   46.5976 H       846      M_A    0.0000
   5800 H          79.1599   53.1131   45.9012 H       846      M_A    0.0000
   5801 H          79.7452   52.4862   44.4426 H       846      M_A    0.0000
   5802 H          80.9698   52.6160   44.7859 H       846      M_A    0.0000
   5803 C          80.3080   51.2612   45.2783 C.3     847      M_A    0.0000
   5804 C          79.4033   50.7139   44.9303 C.3     847      M_A    0.0000
   5805 H          80.9599   50.9569   44.9358 H       847      M_A    0.0000
   5806 H          80.3979   51.1683   46.0645 H       847      M_A    0.0000
   5807 H          78.7937   50.8518   45.4244 H       847      M_A    0.0000
   5808 H          79.1815   50.9810   44.2131 H       847      M_A    0.0000
   5809 C          79.5768   49.5905   44.8659 C.3     848      M_A    0.0000
   5810 C          79.4858   49.2086   43.8244 C.3     848      M_A    0.0000
   5811 H          80.3006   49.4254   45.1553 H       848      M_A    0.0000
   5812 H          79.0519   49.2221   45.3388 H       848      M_A    0.0000
   5813 H          78.7557   48.9128   43.7046 H       848      M_A    0.0000
   5814 H          79.5787   49.8059   43.3053 H       848      M_A    0.0000
   5815 C          80.2522   48.3989   43.5932 C.3     849      M_A    0.0000
   5816 C          80.9998   48.7292   42.8376 C.3     849      M_A    0.0000
   5817 H          80.6199   48.1928   44.2694 H       849      M_A    0.0000
   5818 H          79.8698   47.7499   43.3337 H       849      M_A    0.0000
   5819 H          80.7884   48.4722   42.1136 H       849      M_A    0.0000
   5820 H          81.0186   49.5249   42.8014 H       849      M_A    0.0000
   5821 C          82.0468   48.3476   43.0711 C.3     850      M_A    0.0000
   5822 C          82.6066   48.0625   42.1522 C.3     850      M_A    0.0000
   5823 H          82.4435   48.9130   43.4683 H       850      M_A    0.0000
   5824 H          81.9888   47.7218   43.5609 H       850      M_A    0.0000
   5825 H          82.1261   47.6742   41.6490 H       850      M_A    0.0000
   5826 H          82.8571   48.7158   41.7711 H       850      M_A    0.0000
   5827 C          83.5065   47.4040   42.3821 C.3     851      M_A    0.0000
   5828 C          84.4231   47.7408   41.8477 C.3     851      M_A    0.0000
   5829 H          83.6324   47.4067   43.1688 H       851      M_A    0.0000
   5830 H          83.3333   46.6529   42.1806 H       851      M_A    0.0000
   5831 H          84.3062   47.7123   41.0601 H       851      M_A    0.0000
   5832 H          84.5810   48.5006   42.0283 H       851      M_A    0.0000
   5833 C          85.3317   47.1056   42.1071 C.3     852      M_A    0.0000
   5834 C          86.2870   47.5968   41.8154 C.3     852      M_A    0.0000
   5835 H          85.3277   46.9594   42.8903 H       852      M_A    0.0000
   5836 H          85.2646   46.4004   41.7423 H       852      M_A    0.0000
   5837 H          86.1786   48.0379   41.1608 H       852      M_A    0.0000
   5838 H          86.5247   48.0948   42.3901 H       852      M_A    0.0000
   5839 C          87.1167   46.8429   41.6166 C.3     853      M_A    0.0000
   5840 C          87.9603   47.2860   41.0413 C.3     853      M_A    0.0000
   5841 H          87.3798   46.5609   42.3138 H       853      M_A    0.0000
   5842 H          86.8110   46.2233   41.2198 H       853      M_A    0.0000
   5843 H          87.9484   48.0800   41.1066 H       853      M_A    0.0000
   5844 H          88.6556   47.0419   41.3443 H       853      M_A    0.0000
   5845 C          87.9231   47.0080   39.9378 C.3     854      M_A    0.0000
   5846 C          88.8485   47.3068   39.3961 C.3     854      M_A    0.0000
   5847 H          87.8114   46.2217   39.8747 H       854      M_A    0.0000
   5848 H          87.2879   47.3567   39.6065 H       854      M_A    0.0000
   5849 H          88.6613   47.7391   38.7535 H       854      M_A    0.0000
   5850 H          89.2993   47.7710   39.8609 H       854      M_A    0.0000
   5851 C          89.4649   46.4080   39.0669 C.3     855      M_A    0.0000
   5852 C          90.1040   46.6352   38.1842 C.3     855      M_A    0.0000
   5853 H          89.9175   46.1693   39.6777 H       855      M_A    0.0000
   5854 H          88.9712   45.8056   38.8988 H       855      M_A    0.0000
   5855 H          90.5781   47.2556   38.3427 H       855      M_A    0.0000
   5856 H          90.5812   46.0170   38.0261 H       855      M_A    0.0000
   5857 C          89.4890   46.8711   37.2556 C.3     856      M_A    0.0000
   5858 C          89.6632   46.1376   36.4367 C.3     856      M_A    0.0000
   5859 H          88.7175   46.8808   37.4541 H       856      M_A    0.0000
   5860 H          89.6706   47.6061   37.0072 H       856      M_A    0.0000
   5861 H          89.2038   46.3135   35.8100 H       856      M_A    0.0000
   5862 H          90.4184   46.1817   36.1864 H       856      M_A    0.0000
   5863 C          89.4464   45.0682   36.7619 C.3     857      M_A    0.0000
   5864 C          89.9312   44.3186   36.0971 C.3     857      M_A    0.0000
   5865 H          89.6982   44.9718   37.5117 H       857      M_A    0.0000
   5866 H          88.6575   44.9571   36.7694 H       857      M_A    0.0000
   5867 H          89.6224   44.3634   35.3640 H       857      M_A    0.0000
   5868 H          90.7089   44.4772   36.0279 H       857      M_A    0.0000
   5869 C          89.8065   43.2548   36.4833 C.3     858      M_A    0.0000
   5870 C          89.6787   42.5187   35.6582 C.2     858      M_A    0.0000
   5871 H          90.4435   43.0648   36.9227 H       858      M_A    0.0000
   5872 H          89.1769   43.2308   36.9709 H       858      M_A    0.0000
   5873 H          89.0417   42.7087   35.2189 H       858      M_A    0.0000
   5874 H          90.3084   42.5428   35.1706 H       858      M_A    0.0000
   5875 C          81.8922   71.0441   35.9304 C.2     859      M_A    0.0000
   5876 C          80.7434   70.4761   35.0897 C.3     859      M_A    0.0000
   5877 H          81.5982   72.0063   36.3678 H       859      M_A    0.0000
   5878 H          82.7633   71.2407   35.2932 H       859      M_A    0.0000
   5879 H          81.0106   69.4819   34.7106 H       859      M_A    0.0000
   5880 H          79.8499   70.3461   35.7127 H       859      M_A    0.0000
   5881 C          80.3828   71.3998   33.8755 C.3     860      M_A    0.0000
   5882 C          79.3751   72.4906   34.2547 C.3     860      M_A    0.0000
   5883 H          81.3040   71.8555   33.4920 H       860      M_A    0.0000
   5884 H          79.9782   70.7787   33.0667 H       860      M_A    0.0000
   5885 H          78.6065   72.0779   34.9198 H       860      M_A    0.0000
   5886 H          79.8783   73.2900   34.8127 H       860      M_A    0.0000
   5887 C          78.6746   73.1148   32.9989 C.3     861      M_A    0.0000
   5888 C          77.6051   74.1437   33.3818 C.3     861      M_A    0.0000
   5889 H          79.4374   73.5833   32.3648 H       861      M_A    0.0000
   5890 H          78.2253   72.3077   32.4070 H       861      M_A    0.0000
   5891 H          76.6322   73.6500   33.4967 H       861      M_A    0.0000
   5892 H          77.8466   74.5937   34.3527 H       861      M_A    0.0000
   5893 C          77.4699   75.2849   32.3156 C.3     862      M_A    0.0000
   5894 C          76.0694   75.3372   31.6951 C.3     862      M_A    0.0000
   5895 H          77.7061   76.2442   32.7925 H       862      M_A    0.0000
   5896 H          78.2225   75.1285   31.5328 H       862      M_A    0.0000
   5897 H          75.5593   74.3763   31.8364 H       862      M_A    0.0000
   5898 H          75.4606   76.0948   32.2039 H       862      M_A    0.0000
   5899 C          76.1103   75.6671   30.1631 C.3     863      M_A    0.0000
   5900 C          74.7494   75.4625   29.4884 C.3     863      M_A    0.0000
   5901 H          76.4421   76.7048   30.0336 H       863      M_A    0.0000
   5902 H          76.8666   75.0325   29.6848 H       863      M_A    0.0000
   5903 H          74.0166   76.1689   29.8977 H       863      M_A    0.0000
   5904 H          74.8261   75.6748   28.4149 H       863      M_A    0.0000
   5905 C          74.2058   74.0043   29.6775 C.3     864      M_A    0.0000
   5906 C          72.6940   73.9130   29.4427 C.3     864      M_A    0.0000
   5907 H          74.7349   73.3372   28.9857 H       864      M_A    0.0000
   5908 H          74.4502   73.6646   30.6916 H       864      M_A    0.0000
   5909 H          72.4551   74.2044   28.4124 H       864      M_A    0.0000
   5910 H          72.3566   72.8760   29.5631 H       864      M_A    0.0000
   5911 C          71.8838   74.8254   30.4268 C.3     865      M_A    0.0000
   5912 C          70.5275   75.2432   29.8480 C.3     865      M_A    0.0000
   5913 H          71.7397   74.2864   31.3713 H       865      M_A    0.0000
   5914 H          72.4833   75.7142   30.6596 H       865      M_A    0.0000
   5915 H          70.3499   76.3091   30.0374 H       865      M_A    0.0000
   5916 H          70.5270   75.1124   28.7587 H       865      M_A    0.0000
   5917 C          69.3421   74.4175   30.4566 C.3     866      M_A    0.0000
   5918 C          67.9812   75.0678   30.1844 C.3     866      M_A    0.0000
   5919 H          69.3652   73.4039   30.0374 H       866      M_A    0.0000
   5920 H          69.5006   74.3151   31.5373 H       866      M_A    0.0000
   5921 H          67.6693   75.6642   31.0508 H       866      M_A    0.0000
   5922 H          68.0578   75.7599   29.3367 H       866      M_A    0.0000
   5923 C          66.8682   74.0087   29.8729 C.3     867      M_A    0.0000
   5924 C          65.6763   74.1200   30.8300 C.3     867      M_A    0.0000
   5925 H          66.5327   74.1425   28.8371 H       867      M_A    0.0000
   5926 H          67.3077   73.0054   29.9346 H       867      M_A    0.0000
   5927 H          66.0315   74.2517   31.8595 H       867      M_A    0.0000
   5928 H          65.0800   75.0081   30.5864 H       867      M_A    0.0000
   5929 C          64.7488   72.8575   30.7731 C.3     868      M_A    0.0000
   5930 C          63.3210   73.2048   30.3372 C.3     868      M_A    0.0000
   5931 H          65.1866   72.1280   30.0805 H       868      M_A    0.0000
   5932 H          64.7352   72.3838   31.7625 H       868      M_A    0.0000
   5933 H          62.7343   73.5384   31.2020 H       868      M_A    0.0000
   5934 H          63.3375   74.0404   29.6265 H       868      M_A    0.0000
   5935 C          62.5910   71.9884   29.6701 C.3     869      M_A    0.0000
   5936 C          61.3610   72.4201   28.8640 C.3     869      M_A    0.0000
   5937 H          63.3014   71.4629   29.0200 H       869      M_A    0.0000
   5938 H          62.2972   71.2793   30.4539 H       869      M_A    0.0000
   5939 H          60.9358   73.3378   29.2890 H       869      M_A    0.0000
   5940 H          61.6510   72.6556   27.8325 H       869      M_A    0.0000
   5941 C          60.2505   71.3141   28.8367 C.3     870      M_A    0.0000
   5942 C          60.5817   70.1823   27.8577 C.3     870      M_A    0.0000
   5943 H          60.1277   70.9112   29.8497 H       870      M_A    0.0000
   5944 H          59.2948   71.7791   28.5646 H       870      M_A    0.0000
   5945 H          60.7150   70.5866   26.8466 H       870      M_A    0.0000
   5946 H          61.5322   69.7103   28.1360 H       870      M_A    0.0000
   5947 C          59.4641   69.0837   27.8194 C.3     871      M_A    0.0000
   5948 C          60.0439   67.6650   27.8216 C.3     871      M_A    0.0000
   5949 H          58.8032   69.2214   28.6842 H       871      M_A    0.0000
   5950 H          58.8481   69.2370   26.9246 H       871      M_A    0.0000
   5951 H          60.7944   67.5641   27.0278 H       871      M_A    0.0000
   5952 H          60.5604   67.4712   28.7698 H       871      M_A    0.0000
   5953 C          58.9397   66.5716   27.6149 C.3     872      M_A    0.0000
   5954 C          59.0892   65.8409   26.2760 C.3     872      M_A    0.0000
   5955 H          58.9932   65.8541   28.4431 H       872      M_A    0.0000
   5956 H          57.9538   67.0490   27.6749 H       872      M_A    0.0000
   5957 H          59.6650   66.4564   25.5738 H       872      M_A    0.0000
   5958 H          59.6540   64.9108   26.4161 H       872      M_A    0.0000
   5959 C          57.7034   65.4978   25.6284 C.3     873      M_A    0.0000
   5960 C          57.0869   64.2238   26.2166 C.3     873      M_A    0.0000
   5961 H          57.0245   66.3469   25.7756 H       873      M_A    0.0000
   5962 H          57.8374   65.3856   24.5454 H       873      M_A    0.0000
   5963 H          57.3098   63.3654   25.5709 H       873      M_A    0.0000
   5964 H          57.5336   64.0067   27.1948 H       873      M_A    0.0000
   5965 C          55.5326   64.3391   26.3852 C.3     874      M_A    0.0000
   5966 C          55.1033   62.8296   27.0100 C.3     874      M_A    0.0000
   5967 H          55.2170   65.2131   27.1588 H       874      M_A    0.0000
   5968 H          54.9295   64.5497   25.3586 H       874      M_A    0.0000
   5969 H          54.0319   62.9006   27.5660 H       874      M_A    0.0000
   5970 H          54.9761   62.0301   26.1119 H       874      M_A    0.0000
   5971 C          56.2731   62.2277   28.1300 C.3     875      M_A    0.0000
   5972 C          55.6664   60.9635   29.0719 C.3     875      M_A    0.0000
   5973 H          57.2462   61.8568   27.5155 H       875      M_A    0.0000
   5974 H          56.6365   63.1364   28.8401 H       875      M_A    0.0000
   5975 H          54.5215   61.1929   29.3859 H       875      M_A    0.0000
   5976 H          55.6519   59.9386   28.4306 H       875      M_A    0.0000
   5977 C          56.5969   60.7103   30.5056 C.3     876      M_A    0.0000
   5978 C          56.6240   59.0871   30.9727 C.3     876      M_A    0.0000
   5979 H          57.7234   61.1054   30.3139 H       876      M_A    0.0000
   5980 H          56.1370   61.3897   31.3938 H       876      M_A    0.0000
   5981 H          55.6936   58.8518   31.7082 H       876      M_A    0.0000
   5982 H          56.4904   58.3749   30.0048 H       876      M_A    0.0000
   5983 C          58.0921   58.6621   31.7785 C.3     877      M_A    0.0000
   5984 C          57.8275   57.6287   33.0883 C.3     877      M_A    0.0000
   5985 H          58.8367   58.1396   30.9819 H       877      M_A    0.0000
   5986 H          58.6384   59.6739   32.1525 H       877      M_A    0.0000
   5987 H          57.2724   58.2253   33.9816 H       877      M_A    0.0000
   5988 H          57.0906   56.7271   32.7627 H       877      M_A    0.0000
   5989 C          59.2969   56.9546   33.6978 C.3     878      M_A    0.0000
   5990 C          59.1199   56.3423   35.2621 C.3     878      M_A    0.0000
   5991 H          59.6640   56.0790   32.9490 H       878      M_A    0.0000
   5992 H          60.1535   57.8077   33.6809 H       878      M_A    0.0000
   5993 H          59.1068   57.2482   36.0629 H       878      M_A    0.0000
   5994 H          58.0591   55.7715   35.3664 H       878      M_A    0.0000
   5995 C          60.3864   55.2451   35.6831 C.3     879      M_A    0.0000
   5996 C          61.6942   56.0265   36.4128 C.3     879      M_A    0.0000
   5997 H          59.9405   54.4016   36.4258 H       879      M_A    0.0000
   5998 H          60.7518   54.6700   34.6842 H       879      M_A    0.0000
   5999 H          61.3441   57.0963   36.8544 H       879      M_A    0.0000
   6000 H          62.0939   55.3775   37.3513 H       879      M_A    0.0000
   6001 C          63.0026   56.2793   35.3130 C.3     880      M_A    0.0000
   6002 C          64.5053   55.9911   36.0287 C.3     880      M_A    0.0000
   6003 H          62.8532   55.5548   34.3565 H       880      M_A    0.0000
   6004 H          62.9509   57.4145   34.9001 H       880      M_A    0.0000
   6005 H          64.4105   56.0561   37.2324 H       880      M_A    0.0000
   6006 H          64.8797   54.8709   35.7700 H       880      M_A    0.0000
   6007 C          65.7073   57.1154   35.5031 C.3     881      M_A    0.0000
   6008 C          67.2569   56.4428   35.5037 C.3     881      M_A    0.0000
   6009 H          65.4225   57.4996   34.3926 H       881      M_A    0.0000
   6010 H          65.6760   58.0851   36.2247 H       881      M_A    0.0000
   6011 H          67.3293   55.5691   36.3364 H       881      M_A    0.0000
   6012 H          67.4840   55.9240   34.4354 H       881      M_A    0.0000
   6013 C          68.4812   57.6193   35.8230 C.3     882      M_A    0.0000
   6014 C          69.1730   58.2243   34.4057 C.3     882      M_A    0.0000
   6015 H          67.9966   58.5215   36.4657 H       882      M_A    0.0000
   6016 H          69.3331   57.1164   36.5183 H       882      M_A    0.0000
   6017 H          69.6914   57.3276   33.7818 H       882      M_A    0.0000
   6018 H          68.3157   58.6926   33.6931 H       882      M_A    0.0000
   6019 C          70.3589   59.4400   34.7230 C.3     883      M_A    0.0000
   6020 C          70.4075   60.6181   33.5134 C.3     883      M_A    0.0000
   6021 H          70.1159   59.9522   35.7910 H       883      M_A    0.0000
   6022 H          71.4407   58.9107   34.8299 H       883      M_A    0.0000
   6023 H          70.4910   60.0937   32.4271 H       883      M_A    0.0000
   6024 H          69.3798   61.2551   33.5134 H       883      M_A    0.0000
   6025 C          71.7362   61.7048   33.7108 C.3     884      M_A    0.0000
   6026 C          71.2322   63.3083   33.8789 C.3     884      M_A    0.0000
   6027 H          72.3751   61.3672   34.6802 H       884      M_A    0.0000
   6028 H          72.4712   61.5992   32.7565 H       884      M_A    0.0000
   6029 H          70.8856   63.7485   32.8075 H       884      M_A    0.0000
   6030 H          70.2680   63.3657   34.6063 H       884      M_A    0.0000
   6031 C          72.4755   64.3215   34.5214 C.3     885      M_A    0.0000
   6032 C          72.0935   64.9068   36.0593 C.3     885      M_A    0.0000
   6033 H          73.5081   63.6936   34.5615 H       885      M_A    0.0000
   6034 H          72.6590   65.2433   33.7608 H       885      M_A    0.0000
   6035 H          71.6261   66.0187   35.9754 H       885      M_A    0.0000
   6036 H          71.2458   64.2113   36.5688 H       885      M_A    0.0000
   6037 C          73.4711   64.9590   37.1009 C.3     886      M_A    0.0000
   6038 C          74.3491   66.3919   36.9298 C.3     886      M_A    0.0000
   6039 H          73.0997   64.8344   38.2448 H       886      M_A    0.0000
   6040 H          74.1781   64.0082   36.8598 H       886      M_A    0.0000
   6041 H          74.1829   66.8504   35.8234 H       886      M_A    0.0000
   6042 H          73.9469   67.2206   37.7131 H       886      M_A    0.0000
   6043 C          76.0415   66.1575   37.1871 C.3     887      M_A    0.0000
   6044 C          76.9282   67.5747   36.9444 C.3     887      M_A    0.0000
   6045 H          76.2118   65.7495   38.3124 H       887      M_A    0.0000
   6046 H          76.4328   65.2907   36.4405 H       887      M_A    0.0000
   6047 H          76.3654   68.2838   36.1429 H       887      M_A    0.0000
   6048 H          76.9967   68.2025   37.9755 H       887      M_A    0.0000
   6049 C          78.5294   67.2564   36.3787 C.3     888      M_A    0.0000
   6050 C          79.6416   67.1279   37.6436 C.3     888      M_A    0.0000
   6051 H          78.5182   66.2354   35.7312 H       888      M_A    0.0000
   6052 H          78.8596   68.1421   35.6247 H       888      M_A    0.0000
   6053 H          80.2136   68.1814   37.8013 H       888      M_A    0.0000
   6054 H          79.0657   66.8871   38.6792 H       888      M_A    0.0000
   6055 C          80.8164   65.8933   37.3597 C.3     889      M_A    0.0000
   6056 C          82.0370   65.8903   38.5274 C.3     889      M_A    0.0000
   6057 H          80.2581   64.8210   37.3408 H       889      M_A    0.0000
   6058 H          81.2942   66.0554   36.2608 H       889      M_A    0.0000
   6059 H          82.9517   66.5972   38.1728 H       889      M_A    0.0000
   6060 H          81.6208   66.3546   39.5633 H       889      M_A    0.0000
   6061 C          82.6464   64.3029   38.8336 C.3     890      M_A    0.0000
   6062 C          84.1328   64.0310   38.0785 C.3     890      M_A    0.0000
   6063 H          82.7543   64.1506   40.0283 H       890      M_A    0.0000
   6064 H          81.8334   63.4931   38.4524 H       890      M_A    0.0000
   6065 H          84.3824   64.9361   37.3166 H       890      M_A    0.0000
   6066 H          85.0189   64.0150   38.9010 H       890      M_A    0.0000
   6067 C          84.1594   62.5421   37.2022 C.3     891      M_A    0.0000
   6068 C          84.5191   61.2223   38.1934 C.3     891      M_A    0.0000
   6069 H          83.0841   62.3821   36.6729 H       891      M_A    0.0000
   6070 H          84.9747   62.6275   36.3135 H       891      M_A    0.0000
   6071 H          85.0919   60.3693   37.5562 H       891      M_A    0.0000
   6072 H          85.2722   61.5604   39.0768 H       891      M_A    0.0000
   6073 C          83.1033   60.5311   38.9027 C.3     892      M_A    0.0000
   6074 C          82.3428   59.4304   37.8714 C.3     892      M_A    0.0000
   6075 H          83.4121   59.9853   39.9365 H       892      M_A    0.0000
   6076 H          82.3393   61.4215   39.1948 H       892      M_A    0.0000
   6077 H          82.4209   59.8125   36.7269 H       892      M_A    0.0000
   6078 H          82.9047   58.3608   37.9194 H       892      M_A    0.0000
   6079 C          80.6771   59.2029   38.2701 C.3     893      M_A    0.0000
   6080 C          80.2759   57.5704   38.4366 C.3     893      M_A    0.0000
   6081 H          80.4376   59.7954   39.2965 H       893      M_A    0.0000
   6082 H          79.9973   59.7112   37.4090 H       893      M_A    0.0000
   6083 H          80.0178   57.0946   37.3554 H       893      M_A    0.0000
   6084 H          81.2208   56.9535   38.8708 H       893      M_A    0.0000
   6085 C          78.9249   57.3320   39.4868 C.3     894      M_A    0.0000
   6086 C          79.2634   56.2357   40.7266 C.2     894      M_A    0.0000
   6087 H          78.6013   58.3992   39.9540 H       894      M_A    0.0000
   6088 H          77.9866   56.9407   38.8321 H       894      M_A    0.0000
   6089 H          79.5870   55.1685   40.2594 H       894      M_A    0.0000
   6090 H          80.2016   56.6270   41.3813 H       894      M_A    0.0000
   6091 C          87.3603   65.8618   22.4658 C.2     895      M_A    0.0000
   6092 C          86.8726   64.5896   21.2058 C.3     895      M_A    0.0000
   6093 H          87.8061   65.2657   23.5660 H       895      M_A    0.0000
   6094 H          86.3006   66.5786   22.8231 H       895      M_A    0.0000
   6095 H          85.8356   65.0236   20.4982 H       895      M_A    0.0000
   6096 H          87.8665   64.3955   20.3462 H       895      M_A    0.0000
   6097 C          86.4180   62.9270   22.0009 C.3     896      M_A    0.0000
   6098 C          84.7707   62.9824   22.8538 C.3     896      M_A    0.0000
   6099 H          86.4122   61.9897   21.0597 H       896      M_A    0.0000
   6100 H          87.3682   62.5925   22.8667 H       896      M_A    0.0000
   6101 H          84.8199   63.8178   23.8855 H       896      M_A    0.0000
   6102 H          83.8447   63.4529   22.0258 H       896      M_A    0.0000
   6103 C          84.2247   61.2741   23.4754 C.3     897      M_A    0.0000
   6104 C          82.4402   61.2482   23.9842 C.3     897      M_A    0.0000
   6105 H          84.4376   60.3810   22.5154 H       897      M_A    0.0000
   6106 H          84.9954   60.9246   24.4993 H       897      M_A    0.0000
   6107 H          82.0643   62.4563   24.3887 H       897      M_A    0.0000
   6108 H          81.6744   60.9388   22.9438 H       897      M_A    0.0000
   6109 C          82.1080   60.0050   25.3795 C.3     898      M_A    0.0000
   6110 C          80.3107   59.5629   25.5146 C.3     898      M_A    0.0000
   6111 H          82.8306   58.9121   25.1603 H       898      M_A    0.0000
   6112 H          82.5371   60.5225   26.5252 H       898      M_A    0.0000
   6113 H          80.0359   58.5278   24.7287 H       898      M_A    0.0000
   6114 H          80.0265   59.1854   26.7560 H       898      M_A    0.0000
   6115 C          79.1766   61.0092   25.0401 C.3     899      M_A    0.0000
   6116 C          77.3800   60.5886   25.2386 C.3     899      M_A    0.0000
   6117 H          79.4844   62.0594   25.7930 H       899      M_A    0.0000
   6118 H          79.4271   61.3550   23.7823 H       899      M_A    0.0000
   6119 H          77.0645   60.5352   26.5279 H       899      M_A    0.0000
   6120 H          76.6270   61.5416   24.7008 H       899      M_A    0.0000
   6121 C          76.9362   58.9292   24.4309 C.3     900      M_A    0.0000
   6122 C          75.1021   58.6819   24.2941 C.3     900      M_A    0.0000
   6123 H          77.4940   58.8766   23.2264 H       900      M_A    0.0000
   6124 H          77.4762   57.9476   25.1446 H       900      M_A    0.0000
   6125 H          74.6176   58.2220   25.4423 H       900      M_A    0.0000
   6126 H          74.5015   59.8444   24.0650 H       900      M_A    0.0000
   6127 C          74.6410   57.4712   22.9068 C.3     901      M_A    0.0000
   6128 C          73.8646   55.9169   23.5590 C.3     901      M_A    0.0000
   6129 H          73.8093   58.0782   22.0676 H       901      M_A    0.0000
   6130 H          75.7353   57.1774   22.2136 H       901      M_A    0.0000
   6131 H          74.8030   55.0986   24.0219 H       901      M_A    0.0000
   6132 H          73.0673   56.2009   24.5828 H       901      M_A    0.0000
   6133 C          72.8572   55.0050   22.2337 C.3     902      M_A    0.0000
   6134 C          71.6049   53.8514   22.9719 C.3     902      M_A    0.0000
   6135 H          72.2517   55.9021   21.4635 H       902      M_A    0.0000
   6136 H          73.6915   54.3307   21.4502 H       902      M_A    0.0000
   6137 H          72.2170   52.8213   23.5453 H       902      M_A    0.0000
   6138 H          70.9233   54.4710   23.9290 H       902      M_A    0.0000
   6139 C          70.3821   53.1934   21.6778 C.3     903      M_A    0.0000
   6140 C          68.6506   53.7891   21.9796 C.3     903      M_A    0.0000
   6141 H          70.7903   53.5718   20.4717 H       903      M_A    0.0000
   6142 H          70.4161   51.8656   21.6929 H       903      M_A    0.0000
   6143 H          68.6742   54.9494   22.6258 H       903      M_A    0.0000
   6144 H          68.0366   54.0094   20.8224 H       903      M_A    0.0000
   6145 C          67.6283   52.5478   22.9881 C.3     904      M_A    0.0000
   6146 C          66.7641   51.3085   21.9104 C.3     904      M_A    0.0000
   6147 H          68.4322   51.9258   23.8432 H       904      M_A    0.0000
   6148 H          66.7405   53.2159   23.7162 H       904      M_A    0.0000
   6149 H          65.5097   51.6887   21.6948 H       904      M_A    0.0000
   6150 H          67.3542   51.2486   20.7218 H       904      M_A    0.0000
   6151 C          66.7540   49.5720   22.6768 C.3     905      M_A    0.0000
   6152 C          65.0841   49.1047   23.3378 C.3     905      M_A    0.0000
   6153 H          67.1412   48.6957   21.7567 H       905      M_A    0.0000
   6154 H          67.6575   49.5280   23.6496 H       905      M_A    0.0000
   6155 H          64.9036   49.6408   24.5396 H       905      M_A    0.0000
   6156 H          64.1304   49.5954   22.5540 H       905      M_A    0.0000
   6157 C          64.8622   47.2240   23.4672 C.3     906      M_A    0.0000
   6158 C          63.2156   46.7578   24.1852 C.3     906      M_A    0.0000
   6159 H          64.9985   46.6925   22.2574 H       906      M_A    0.0000
   6160 H          65.8419   46.7277   24.2144 H       906      M_A    0.0000
   6161 H          62.2465   47.0356   23.3203 H       906      M_A    0.0000
   6162 H          63.1682   45.4484   24.4036 H       906      M_A    0.0000
   6163 C          62.8592   47.6632   25.8150 C.3     907      M_A    0.0000
   6164 C          61.1049   47.4368   26.3762 C.3     907      M_A    0.0000
   6165 H          63.6961   47.2165   26.7448 H       907      M_A    0.0000
   6166 H          63.1227   48.9551   25.6536 H       907      M_A    0.0000
   6167 H          60.2881   47.4361   25.3287 H       907      M_A    0.0000
   6168 H          60.9652   46.2566   26.9696 H       907      M_A    0.0000
   6169 C          60.5538   48.7963   27.5807 C.3     908      M_A    0.0000
   6170 C          60.0303   48.1104   29.2237 C.3     908      M_A    0.0000
   6171 H          61.5540   49.6552   27.7436 H       908      M_A    0.0000
   6172 H          59.5534   49.4756   27.0310 H       908      M_A    0.0000
   6173 H          59.7828   49.1013   30.0730 H       908      M_A    0.0000
   6174 H          58.8978   47.4286   29.0926 H       908      M_A    0.0000
   6175 C          61.3465   46.9708   29.9799 C.3     909      M_A    0.0000
   6176 C          61.0938   46.7158   31.8007 C.3     909      M_A    0.0000
   6177 H          61.3158   45.8029   29.3478 H       909      M_A    0.0000
   6178 H          62.5464   47.4946   29.7555 H       909      M_A    0.0000
   6179 H          61.4707   47.8001   32.4691 H       909      M_A    0.0000
   6180 H          59.8036   46.5366   32.0608 H       909      M_A    0.0000
   6181 C          62.0638   45.2231   32.4594 C.3     910      M_A    0.0000
   6182 C          61.0586   44.1922   33.6302 C.3     910      M_A    0.0000
   6183 H          62.4637   44.4844   31.4303 H       910      M_A    0.0000
   6184 H          63.1624   45.6599   33.0652 H       910      M_A    0.0000
   6185 H          60.9675   44.7991   34.8083 H       910      M_A    0.0000
   6186 H          59.8188   44.0608   33.1719 H       910      M_A    0.0000
   6187 C          61.8021   42.4648   33.8877 C.3     911      M_A    0.0000
   6188 C          60.4977   41.1651   34.1187 C.3     911      M_A    0.0000
   6189 H          62.5628   42.1656   32.8407 H       911      M_A    0.0000
   6190 H          62.6048   42.4976   34.9456 H       911      M_A    0.0000
   6191 H          60.0373   41.1981   35.3643 H       911      M_A    0.0000
   6192 H          59.4631   41.4116   33.3230 H       911      M_A    0.0000
   6193 C          61.1485   39.4199   33.7531 C.3     912      M_A    0.0000
   6194 C          61.2348   38.3674   35.2791 C.3     912      M_A    0.0000
   6195 H          60.3591   38.8490   32.8501 H       912      M_A    0.0000
   6196 H          62.3520   39.5190   33.1995 H       912      M_A    0.0000
   6197 H          61.4236   39.1314   36.3492 H       912      M_A    0.0000
   6198 H          60.0815   37.7339   35.4613 H       912      M_A    0.0000
   6199 C          62.6304   37.0839   35.1898 C.3     913      M_A    0.0000
   6200 C          62.3479   35.6565   36.3417 C.3     913      M_A    0.0000
   6201 H          62.7309   36.6470   33.9393 H       913      M_A    0.0000
   6202 H          63.7809   37.6816   35.4787 H       913      M_A    0.0000
   6203 H          61.6077   36.0442   37.3743 H       913      M_A    0.0000
   6204 H          61.6667   34.6991   35.7221 H       913      M_A    0.0000
   6205 C          63.9738   34.9262   36.9943 C.3     914      M_A    0.0000
   6206 C          63.8090   33.1333   37.4440 C.3     914      M_A    0.0000
   6207 H          64.9140   35.0789   36.0683 H       914      M_A    0.0000
   6208 H          64.3637   35.6274   38.0530 H       914      M_A    0.0000
   6209 H          62.7169   32.9460   38.1766 H       914      M_A    0.0000
   6210 H          63.6624   32.3999   36.3462 H       914      M_A    0.0000
   6211 C          65.3116   32.4932   38.4112 C.3     915      M_A    0.0000
   6212 C          65.7304   30.7377   37.9791 C.3     915      M_A    0.0000
   6213 H          66.3497   33.2837   38.1620 H       915      M_A    0.0000
   6214 H          65.0587   32.5943   39.7113 H       915      M_A    0.0000
   6215 H          64.6281   30.0750   37.6469 H       915      M_A    0.0000
   6216 H          66.5279   30.7078   36.9172 H       915      M_A    0.0000
   6217 C          66.5831   29.8283   39.4104 C.3     916      M_A    0.0000
   6218 C          68.3731   29.4864   39.0596 C.3     916      M_A    0.0000
   6219 H          66.4668   30.5604   40.5127 H       916      M_A    0.0000
   6220 H          65.9382   28.6897   39.6390 H       916      M_A    0.0000
   6221 H          68.5449   29.2417   37.7653 H       916      M_A    0.0000
   6222 H          69.1059   30.5567   39.3460 H       916      M_A    0.0000
   6223 C          69.0319   28.0100   40.0540 C.3     917      M_A    0.0000
   6224 C          70.8859   27.9853   40.1315 C.3     917      M_A    0.0000
   6225 H          68.5254   28.0600   41.2810 H       917      M_A    0.0000
   6226 H          68.5841   26.8878   39.5019 H       917      M_A    0.0000
   6227 H          71.3013   28.5244   41.2723 H       917      M_A    0.0000
   6228 H          71.3256   26.7318   40.1196 H       917      M_A    0.0000
   6229 C          71.6789   28.9256   38.6859 C.3     918      M_A    0.0000
   6230 C          72.9409   30.1603   39.2578 C.3     918      M_A    0.0000
   6231 H          72.2408   28.0486   37.8615 H       918      M_A    0.0000
   6232 H          70.7222   29.5379   37.9972 H       918      M_A    0.0000
   6233 H          72.8153   30.3683   40.5638 H       918      M_A    0.0000
   6234 H          74.1653   29.6833   39.0636 H       918      M_A    0.0000
   6235 C          72.7814   31.8225   38.3553 C.3     919      M_A    0.0000
   6236 C          72.7071   33.2567   39.5308 C.3     919      M_A    0.0000
   6237 H          73.8133   31.9626   37.5306 H       919      M_A    0.0000
   6238 H          71.6896   31.7962   37.5993 H       919      M_A    0.0000
   6239 H          71.7803   34.1222   39.1352 H       919      M_A    0.0000
   6240 H          72.3468   32.8374   40.7386 H       919      M_A    0.0000
   6241 C          74.3701   34.1612   39.6680 C.3     920      M_A    0.0000
   6242 C          75.4888   33.3888   40.9313 C.3     920      M_A    0.0000
   6243 H          74.9582   34.1592   38.4769 H       920      M_A    0.0000
   6244 H          74.1418   35.4324   39.9785 H       920      M_A    0.0000
   6245 H          74.7973   33.0764   42.0217 H       920      M_A    0.0000
   6246 H          75.9921   32.2532   40.4604 H       920      M_A    0.0000
   6247 C          76.9198   34.5352   41.4219 C.3     921      M_A    0.0000
   6248 C          78.2740   34.5523   40.1531 C.3     921      M_A    0.0000
   6249 H          76.4441   35.7631   41.5969 H       921      M_A    0.0000
   6250 H          77.4006   34.1415   42.5960 H       921      M_A    0.0000
   6251 H          78.9657   33.4197   40.2099 H       921      M_A    0.0000
   6252 H          77.7539   34.6208   38.9327 H       921      M_A    0.0000
   6253 C          79.4660   36.0099   40.3928 C.3     922      M_A    0.0000
   6254 C          78.9257   37.5209   39.4606 C.3     922      M_A    0.0000
   6255 H          79.5539   36.2823   41.6900 H       922      M_A    0.0000
   6256 H          80.6791   35.6404   39.9975 H       922      M_A    0.0000
   6257 H          77.6966   37.8669   39.8270 H       922      M_A    0.0000
   6258 H          79.7155   38.5466   39.7586 H       922      M_A    0.0000
   6259 C          78.9518   37.2544   37.5815 C.3     923      M_A    0.0000
   6260 C          80.4774   37.9575   36.7925 C.3     923      M_A    0.0000
   6261 H          78.8691   35.9522   37.3325 H       923      M_A    0.0000
   6262 H          77.8679   37.8131   37.0547 H       923      M_A    0.0000
   6263 H          80.2213   39.1651   36.3021 H       923      M_A    0.0000
   6264 H          81.4321   38.1103   37.7034 H       923      M_A    0.0000
   6265 C          81.1367   36.8563   35.3940 C.3     924      M_A    0.0000
   6266 C          82.1150   37.8175   34.1439 C.3     924      M_A    0.0000
   6267 H          81.8895   35.8979   35.9224 H       924      M_A    0.0000
   6268 H          80.1106   36.2536   34.8038 H       924      M_A    0.0000
   6269 H          82.4431   37.0343   33.1223 H       924      M_A    0.0000
   6270 H          81.3758   38.8030   33.6470 H       924      M_A    0.0000
   6271 C          83.7002   38.5547   34.8833 C.3     925      M_A    0.0000
   6272 C          85.2222   38.0025   33.9764 C.2     925      M_A    0.0000
   6273 H          83.6093   39.8797   34.8561 H       925      M_A    0.0000
   6274 H          83.7795   38.2039   36.1620 H       925      M_A    0.0000
   6275 H          85.3130   36.6775   34.0036 H       925      M_A    0.0000
   6276 H          85.1429   38.3533   32.6976 H       925      M_A    0.0000
   6277 C          87.1374   75.2872    6.0566 C.2     926      M_A    0.0000
   6278 C          86.2856   74.3457    5.1980 C.3     926      M_A    0.0000
   6279 H          87.5570   74.7412    6.9106 H       926      M_A    0.0000
   6280 H          86.5119   76.0876    6.4709 H       926      M_A    0.0000
   6281 H          85.8703   74.8906    4.3412 H       926      M_A    0.0000
   6282 H          86.9101   73.5424    4.7878 H       926      M_A    0.0000
   6283 C          85.1069   73.7053    6.0091 C.3     927      M_A    0.0000
   6284 C          83.8609   74.5975    6.0255 C.3     927      M_A    0.0000
   6285 H          84.8650   72.7293    5.5703 H       927      M_A    0.0000
   6286 H          85.4463   73.5142    7.0347 H       927      M_A    0.0000
   6287 H          84.0572   75.5072    6.6065 H       927      M_A    0.0000
   6288 H          83.6167   74.9213    5.0062 H       927      M_A    0.0000
   6289 C          82.6152   73.8672    6.6357 C.3     928      M_A    0.0000
   6290 C          81.2986   74.5630    6.2731 C.3     928      M_A    0.0000
   6291 H          82.6033   72.8300    6.2786 H       928      M_A    0.0000
   6292 H          82.7298   73.8237    7.7259 H       928      M_A    0.0000
   6293 H          81.4679   75.6375    6.1302 H       928      M_A    0.0000
   6294 H          80.9179   74.1746    5.3203 H       928      M_A    0.0000
   6295 C          80.2000   74.3666    7.3740 C.3     929      M_A    0.0000
   6296 C          79.2015   73.2631    7.0077 C.3     929      M_A    0.0000
   6297 H          80.6914   74.1286    8.3255 H       929      M_A    0.0000
   6298 H          79.6727   75.3174    7.5209 H       929      M_A    0.0000
   6299 H          78.3432   73.6934    6.4770 H       929      M_A    0.0000
   6300 H          79.6686   72.5456    6.3218 H       929      M_A    0.0000
   6301 C          78.6805   72.4910    8.2686 C.3     930      M_A    0.0000
   6302 C          77.1654   72.2637    8.2255 C.3     930      M_A    0.0000
   6303 H          79.2034   71.5289    8.3352 H       930      M_A    0.0000
   6304 H          78.9502   73.0590    9.1676 H       930      M_A    0.0000
   6305 H          76.6873   73.0312    7.6043 H       930      M_A    0.0000
   6306 H          76.9432   71.2965    7.7579 H       930      M_A    0.0000
   6307 C          76.5191   72.2948    9.6534 C.3     931      M_A    0.0000
   6308 C          75.3902   73.3261    9.7577 C.3     931      M_A    0.0000
   6309 H          76.1374   71.2940    9.8907 H       931      M_A    0.0000
   6310 H          77.3007   72.5168   10.3906 H       931      M_A    0.0000
   6311 H          75.6203   73.9899    8.9950 H       931      M_A    0.0000
   6312 H          74.5409   72.8117    9.4586 H       931      M_A    0.0000
   6313 C          75.0746   74.0973   10.9829 C.3     932      M_A    0.0000
   6314 C          74.1077   73.4212   11.8235 C.3     932      M_A    0.0000
   6315 H          75.9523   74.2601   11.5107 H       932      M_A    0.0000
   6316 H          74.7155   75.0303   10.7074 H       932      M_A    0.0000
   6317 H          73.1513   73.5594   11.4473 H       932      M_A    0.0000
   6318 H          74.2849   72.3995   11.8183 H       932      M_A    0.0000
   6319 C          74.1448   73.9052   13.2234 C.3     933      M_A    0.0000
   6320 C          74.2780   72.8216   14.1757 C.3     933      M_A    0.0000
   6321 H          74.9351   74.5686   13.3269 H       933      M_A    0.0000
   6322 H          73.2785   74.4421   13.4146 H       933      M_A    0.0000
   6323 H          73.3466   72.5598   14.5489 H       933      M_A    0.0000
   6324 H          74.6577   71.9793   13.7050 H       933      M_A    0.0000
   6325 C          75.1643   73.1758   15.3091 C.3     934      M_A    0.0000
   6326 C          74.4588   73.8847   16.3571 C.3     934      M_A    0.0000
   6327 H          75.5851   72.3072   15.6884 H       934      M_A    0.0000
   6328 H          75.9472   73.7550   14.9528 H       934      M_A    0.0000
   6329 H          73.5868   74.3006   15.9802 H       934      M_A    0.0000
   6330 H          74.1750   73.2242   17.1043 H       934      M_A    0.0000
   6331 C          75.2804   74.9614   16.9581 C.3     935      M_A    0.0000
   6332 C          74.5745   76.2252   17.0127 C.3     935      M_A    0.0000
   6333 H          75.5650   74.6716   17.9122 H       935      M_A    0.0000
   6334 H          76.1520   75.0645   16.4059 H       935      M_A    0.0000
   6335 H          74.2452   76.4898   16.0657 H       935      M_A    0.0000
   6336 H          73.7297   76.1352   17.6074 H       935      M_A    0.0000
   6337 C          75.4203   77.3183   17.5469 C.3     936      M_A    0.0000
   6338 C          74.6452   78.3156   18.2563 C.3     936      M_A    0.0000
   6339 H          76.1358   76.9100   18.1767 H       936      M_A    0.0000
   6340 H          75.9326   77.7593   16.7605 H       936      M_A    0.0000
   6341 H          74.2635   79.0107   17.5882 H       936      M_A    0.0000
   6342 H          73.8316   77.8701   18.7198 H       936      M_A    0.0000
   6343 C          75.4472   79.0269   19.2793 C.3     937      M_A    0.0000
   6344 C          74.6275   79.8501   20.1448 C.3     937      M_A    0.0000
   6345 H          75.9673   78.3279   19.8417 H       937      M_A    0.0000
   6346 H          76.1571   79.6116   18.8004 H       937      M_A    0.0000
   6347 H          74.5512   80.8084   19.7561 H       937      M_A    0.0000
   6348 H          73.6640   79.4694   20.1896 H       937      M_A    0.0000
   6349 C          75.1720   79.9345   21.5203 C.3     938      M_A    0.0000
   6350 C          74.1398   80.1865   22.5049 C.3     938      M_A    0.0000
   6351 H          75.6642   79.0486   21.7398 H       938      M_A    0.0000
   6352 H          75.8849   80.6870   21.5519 H       938      M_A    0.0000
   6353 H          73.7820   81.1547   22.4052 H       938      M_A    0.0000
   6354 H          73.3341   79.5535   22.3455 H       938      M_A    0.0000
   6355 C          74.6280   79.9982   23.8912 C.3     939      M_A    0.0000
   6356 C          74.0492   78.8303   24.5233 C.3     939      M_A    0.0000
   6357 H          75.6617   79.9173   23.8734 H       939      M_A    0.0000
   6358 H          74.4053   80.8479   24.4423 H       939      M_A    0.0000
   6359 H          73.7856   79.0496   25.5019 H       939      M_A    0.0000
   6360 H          73.1767   78.5569   24.0341 H       939      M_A    0.0000
   6361 C          74.9772   77.6752   24.5260 C.3     940      M_A    0.0000
   6362 C          75.0790   77.0557   25.8316 C.3     940      M_A    0.0000
   6363 H          74.6498   76.9818   23.8279 H       940      M_A    0.0000
   6364 H          75.9115   77.9964   24.2110 H       940      M_A    0.0000
   6365 H          74.2552   77.3066   26.4093 H       940      M_A    0.0000
   6366 H          75.0729   76.0232   25.7366 H       940      M_A    0.0000
   6367 C          76.3088   77.4619   26.5515 C.3     941      M_A    0.0000
   6368 C          76.5460   76.6553   27.7312 C.3     941      M_A    0.0000
   6369 H          77.1149   77.3895   25.9032 H       941      M_A    0.0000
   6370 H          76.2272   78.4615   26.8147 H       941      M_A    0.0000
   6371 H          76.1863   77.1423   28.5731 H       941      M_A    0.0000
   6372 H          76.0271   75.7604   27.6604 H       941      M_A    0.0000
   6373 C          77.9843   76.3590   27.9290 C.3     942      M_A    0.0000
   6374 C          78.2095   74.9948   28.3614 C.3     942      M_A    0.0000
   6375 H          78.4877   76.5380   27.0403 H       942      M_A    0.0000
   6376 H          78.3691   77.0216   28.6278 H       942      M_A    0.0000
   6377 H          77.7488   74.8311   29.2758 H       942      M_A    0.0000
   6378 H          77.7796   74.3331   27.6886 H       942      M_A    0.0000
   6379 C          79.6511   74.6769   28.4890 C.3     943      M_A    0.0000
   6380 C          79.9697   74.0768   29.7685 C.3     943      M_A    0.0000
   6381 H          79.9217   74.0372   27.7190 H       943      M_A    0.0000
   6382 H          80.1983   75.5480   28.3587 H       943      M_A    0.0000
   6383 H          79.3272   74.4353   30.4992 H       943      M_A    0.0000
   6384 H          79.8281   73.0505   29.7250 H       943      M_A    0.0000
   6385 C          81.3656   74.3491   30.1844 C.3     944      M_A    0.0000
   6386 C          82.3041   73.4096   29.6054 C.3     944      M_A    0.0000
   6387 H          81.6143   75.3168   29.9070 H       944      M_A    0.0000
   6388 H          81.4190   74.3130   31.2193 H       944      M_A    0.0000
   6389 H          82.3508   72.5509   30.1848 H       944      M_A    0.0000
   6390 H          81.9799   73.1170   28.6650 H       944      M_A    0.0000
   6391 C          83.6667   73.9792   29.4850 C.3     945      M_A    0.0000
   6392 C          83.9872   74.3529   28.1226 C.3     945      M_A    0.0000
   6393 H          83.7397   74.8057   30.1069 H       945      M_A    0.0000
   6394 H          84.3519   73.2831   29.8333 H       945      M_A    0.0000
   6395 H          84.9833   74.1458   27.9220 H       945      M_A    0.0000
   6396 H          83.4260   73.7886   27.4578 H       945      M_A    0.0000
   6397 C          83.7358   75.7894   27.8604 C.3     946      M_A    0.0000
   6398 C          84.9570   76.5198   27.5886 C.3     946      M_A    0.0000
   6399 H          83.0849   75.8737   27.0575 H       946      M_A    0.0000
   6400 H          83.2515   76.1991   28.6806 H       946      M_A    0.0000
   6401 H          85.4285   76.1259   26.7533 H       946      M_A    0.0000
   6402 H          84.7380   77.5091   27.3681 H       946      M_A    0.0000
   6403 C          85.8997   76.4826   28.7311 C.3     947      M_A    0.0000
   6404 C          87.1646   77.1166   28.4202 C.3     947      M_A    0.0000
   6405 H          85.4579   76.9504   29.5443 H       947      M_A    0.0000
   6406 H          86.0550   75.4944   29.0043 H       947      M_A    0.0000
   6407 H          87.2953   77.1643   27.3926 H       947      M_A    0.0000
   6408 H          87.1670   78.0941   28.7663 H       947      M_A    0.0000
   6409 C          88.3149   76.3965   29.0150 C.3     948      M_A    0.0000
   6410 C          89.5116   76.5104   28.2064 C.3     948      M_A    0.0000
   6411 H          88.4904   76.7737   29.9648 H       948      M_A    0.0000
   6412 H          88.0595   75.3985   29.1334 H       948      M_A    0.0000
   6413 H          89.7874   77.5061   28.1178 H       948      M_A    0.0000
   6414 H          90.3011   76.0227   28.6691 H       948      M_A    0.0000
   6415 C          89.3288   75.9429   26.8499 C.3     949      M_A    0.0000
   6416 C          90.2024   74.8135   26.6049 C.3     949      M_A    0.0000
   6417 H          88.3383   75.6572   26.7378 H       949      M_A    0.0000
   6418 H          89.5050   76.6872   26.1497 H       949      M_A    0.0000
   6419 H          91.1402   75.1462   26.3131 H       949      M_A    0.0000
   6420 H          90.3371   74.2721   27.4789 H       949      M_A    0.0000
   6421 C          89.6701   73.9083   25.5595 C.3     950      M_A    0.0000
   6422 C          89.9627   72.5169   25.8372 C.3     950      M_A    0.0000
   6423 H          88.6453   74.0484   25.4862 H       950      M_A    0.0000
   6424 H          90.0741   74.1807   24.6442 H       950      M_A    0.0000
   6425 H          90.9333   72.4211   26.1894 H       950      M_A    0.0000
   6426 H          89.3381   72.1649   26.5863 H       950      M_A    0.0000
   6427 C          89.8024   71.6594   24.6395 C.3     951      M_A    0.0000
   6428 C          90.7391   70.5544   24.6260 C.3     951      M_A    0.0000
   6429 H          88.8296   71.3013   24.6126 H       951      M_A    0.0000
   6430 H          89.9285   72.2428   23.7915 H       951      M_A    0.0000
   6431 H          91.7038   70.9077   24.4857 H       951      M_A    0.0000
   6432 H          90.7300   70.0694   25.5425 H       951      M_A    0.0000
   6433 C          90.4314   69.5703   23.5618 C.3     952      M_A    0.0000
   6434 C          91.5892   69.2621   22.7476 C.3     952      M_A    0.0000
   6435 H          90.0657   68.7055   24.0019 H       952      M_A    0.0000
   6436 H          89.6694   69.9474   22.9681 H       952      M_A    0.0000
   6437 H          92.3099   68.7848   23.3205 H       952      M_A    0.0000
   6438 H          91.3265   68.6039   21.9906 H       952      M_A    0.0000
   6439 C          92.1875   70.4741   22.1404 C.3     953      M_A    0.0000
   6440 C          92.1739   70.4266   20.6925 C.2     953      M_A    0.0000
   6441 H          91.6669   71.3066   22.4737 H       953      M_A    0.0000
   6442 H          93.1608   70.5743   22.4837 H       953      M_A    0.0000
   6443 H          92.6945   69.5940   20.3592 H       953      M_A    0.0000
   6444 H          91.2006   70.3264   20.3491 H       953      M_A    0.0000
   6445 C          57.4520   51.0006   13.2314 C.2     954      M_A    0.0000
   6446 C          56.0672   50.6703   12.6637 C.3     954      M_A    0.0000
   6447 H          57.3727   51.2456   14.2979 H       954      M_A    0.0000
   6448 H          57.8605   51.8889   12.7337 H       954      M_A    0.0000
   6449 H          56.1685   50.0777   11.7461 H       954      M_A    0.0000
   6450 H          55.5057   50.0538   13.3765 H       954      M_A    0.0000
   6451 C          55.2335   51.9587   12.3437 C.3     955      M_A    0.0000
   6452 C          55.7686   53.0532   13.3792 C.3     955      M_A    0.0000
   6453 H          55.4695   52.2839   11.2721 H       955      M_A    0.0000
   6454 H          54.0948   51.8722   12.4176 H       955      M_A    0.0000
   6455 H          54.9030   53.7105   13.7376 H       955      M_A    0.0000
   6456 H          56.1969   52.5389   14.3075 H       955      M_A    0.0000
   6457 C          56.9228   54.0109   12.7274 C.3     956      M_A    0.0000
   6458 C          57.5226   55.0452   13.7890 C.3     956      M_A    0.0000
   6459 H          57.7578   53.3496   12.3089 H       956      M_A    0.0000
   6460 H          56.4747   54.5762   11.8389 H       956      M_A    0.0000
   6461 H          56.7381   55.8352   14.0536 H       956      M_A    0.0000
   6462 H          57.7832   54.5019   14.7620 H       956      M_A    0.0000
   6463 C          58.8624   55.7989   13.2311 C.3     957      M_A    0.0000
   6464 C          59.7440   56.4202   14.4114 C.3     957      M_A    0.0000
   6465 H          59.4840   55.0494   12.6297 H       957      M_A    0.0000
   6466 H          58.5457   56.6227   12.5024 H       957      M_A    0.0000
   6467 H          59.0758   56.6879   15.3011 H       957      M_A    0.0000
   6468 H          60.4977   55.6455   14.7877 H       957      M_A    0.0000
   6469 C          60.5555   57.7594   13.9399 C.3     958      M_A    0.0000
   6470 C          61.9724   57.8970   14.6678 C.3     958      M_A    0.0000
   6471 H          60.6991   57.7233   12.8051 H       958      M_A    0.0000
   6472 H          59.9101   58.6785   14.1604 H       958      M_A    0.0000
   6473 H          62.4685   58.8865   14.3770 H       958      M_A    0.0000
   6474 H          61.8296   57.9222   15.8030 H       958      M_A    0.0000
   6475 C          62.9846   56.6691   14.2909 C.3     959      M_A    0.0000
   6476 C          63.9692   57.0430   13.0879 C.3     959      M_A    0.0000
   6477 H          63.5899   56.3912   15.2215 H       959      M_A    0.0000
   6478 H          62.3620   55.7488   14.0168 H       959      M_A    0.0000
   6479 H          64.0582   56.1603   12.3649 H       959      M_A    0.0000
   6480 H          63.5405   57.9178   12.4873 H       959      M_A    0.0000
   6481 C          65.4642   57.4469   13.6134 C.3     960      M_A    0.0000
   6482 C          65.4346   58.6680   14.6451 C.3     960      M_A    0.0000
   6483 H          65.9430   56.5304   14.1038 H       960      M_A    0.0000
   6484 H          66.1136   57.7127   12.7093 H       960      M_A    0.0000
   6485 H          65.7784   59.6284   14.1263 H       960      M_A    0.0000
   6486 H          64.3635   58.8532   15.0031 H       960      M_A    0.0000
   6487 C          66.3872   58.4023   15.9474 C.3     961      M_A    0.0000
   6488 C          66.1869   59.5117   17.0812 C.3     961      M_A    0.0000
   6489 H          66.1546   57.3640   16.3689 H       961      M_A    0.0000
   6490 H          67.4797   58.3816   15.6072 H       961      M_A    0.0000
   6491 H          66.8477   60.4201   16.8624 H       961      M_A    0.0000
   6492 H          65.1048   59.8843   17.0788 H       961      M_A    0.0000
   6493 C          66.5461   58.9455   18.5727 C.3     962      M_A    0.0000
   6494 C          68.0246   59.3445   19.0324 C.3     962      M_A    0.0000
   6495 H          65.7797   59.3553   19.3173 H       962      M_A    0.0000
   6496 H          66.4287   57.8071   18.5733 H       962      M_A    0.0000
   6497 H          68.7703   59.1200   18.1938 H       962      M_A    0.0000
   6498 H          68.0833   60.4699   19.2318 H       962      M_A    0.0000
   6499 C          68.4913   58.5452   20.3806 C.3     963      M_A    0.0000
   6500 C          70.0725   58.6119   20.6078 C.3     963      M_A    0.0000
   6501 H          67.9461   58.9926   21.2820 H       963      M_A    0.0000
   6502 H          68.1521   57.4552   20.2993 H       963      M_A    0.0000
   6503 H          70.3054   58.6907   21.7255 H       963      M_A    0.0000
   6504 H          70.5632   57.6467   20.2371 H       963      M_A    0.0000
   6505 C          70.7565   59.8810   19.8360 C.3     964      M_A    0.0000
   6506 C          72.3088   60.0378   20.1856 C.3     964      M_A    0.0000
   6507 H          70.6202   59.7438   18.7080 H       964      M_A    0.0000
   6508 H          70.1917   60.8345   20.1217 H       964      M_A    0.0000
   6509 H          72.8658   59.0681   19.9421 H       964      M_A    0.0000
   6510 H          72.7763   60.8569   19.5373 H       964      M_A    0.0000
   6511 C          72.5555   60.4062   21.7597 C.3     965      M_A    0.0000
   6512 C          74.0341   60.0381   22.2437 C.3     965      M_A    0.0000
   6513 H          72.3594   61.5234   21.9121 H       965      M_A    0.0000
   6514 H          71.7843   59.8477   22.3945 H       965      M_A    0.0000
   6515 H          74.3923   59.0851   21.7208 H       965      M_A    0.0000
   6516 H          74.7626   60.8693   21.9469 H       965      M_A    0.0000
   6517 C          74.1193   59.8154   23.8616 C.3     966      M_A    0.0000
   6518 C          75.2763   60.6907   24.5336 C.3     966      M_A    0.0000
   6519 H          73.1069   60.0815   24.3243 H       966      M_A    0.0000
   6520 H          74.2951   58.7044   24.0723 H       966      M_A    0.0000
   6521 H          76.2895   60.4197   24.0757 H       966      M_A    0.0000
   6522 H          75.1042   61.8012   24.3171 H       966      M_A    0.0000
   6523 C          75.3551   60.4754   26.1528 C.3     967      M_A    0.0000
   6524 C          74.8112   61.7439   26.9599 C.3     967      M_A    0.0000
   6525 H          74.7503   59.5445   26.4310 H       967      M_A    0.0000
   6526 H          76.4409   60.2611   26.4440 H       967      M_A    0.0000
   6527 H          75.4966   61.9667   27.8489 H       967      M_A    0.0000
   6528 H          74.8289   62.6720   26.2905 H       967      M_A    0.0000
   6529 C          73.2880   61.5209   27.5117 C.3     968      M_A    0.0000
   6530 C          73.2611   61.0029   29.0241 C.3     968      M_A    0.0000
   6531 H          72.7160   62.5083   27.4249 H       968      M_A    0.0000
   6532 H          72.7550   60.7713   26.8306 H       968      M_A    0.0000
   6533 H          73.8140   61.7411   29.7016 H       968      M_A    0.0000
   6534 H          72.1824   60.9536   29.4029 H       968      M_A    0.0000
   6535 C          73.9444   59.5259   29.1855 C.3     969      M_A    0.0000
   6536 C          73.0351   58.5280   30.0420 C.3     969      M_A    0.0000
   6537 H          74.1315   59.0901   28.1439 H       969      M_A    0.0000
   6538 H          74.9693   59.6457   29.6805 H       969      M_A    0.0000
   6539 H          73.6909   57.8987   30.7375 H       969      M_A    0.0000
   6540 H          72.3227   59.1230   30.7114 H       969      M_A    0.0000
   6541 C          72.1555   57.5248   29.0964 C.3     970      M_A    0.0000
   6542 C          70.6848   57.2816   29.6744 C.3     970      M_A    0.0000
   6543 H          72.0949   57.9692   28.0435 H       970      M_A    0.0000
   6544 H          72.7094   56.5278   29.0009 H       970      M_A    0.0000
   6545 H          70.3804   58.1525   30.3517 H       970      M_A    0.0000
   6546 H          69.9266   57.2510   28.8177 H       970      M_A    0.0000
   6547 C          70.5756   55.8892   30.5250 C.3     971      M_A    0.0000
   6548 C          69.0903   55.6143   31.0493 C.3     971      M_A    0.0000
   6549 H          70.9242   55.0238   29.8623 H       971      M_A    0.0000
   6550 H          71.3008   55.9391   31.4089 H       971      M_A    0.0000
   6551 H          68.9498   56.0728   32.0884 H       971      M_A    0.0000
   6552 H          68.3307   56.1225   30.3604 H       971      M_A    0.0000
   6553 C          68.7460   54.0175   31.1267 C.3     972      M_A    0.0000
   6554 C          69.2973   53.3431   32.4674 C.3     972      M_A    0.0000
   6555 H          67.6119   53.8809   31.0563 H       972      M_A    0.0000
   6556 H          69.1970   53.4981   30.2121 H       972      M_A    0.0000
   6557 H          68.7298   53.7507   33.3738 H       972      M_A    0.0000
   6558 H          69.1115   52.2141   32.4439 H       972      M_A    0.0000
   6559 C          70.8962   53.6098   32.6832 C.3     973      M_A    0.0000
   6560 C          71.6283   52.3715   33.3810 C.3     973      M_A    0.0000
   6561 H          71.3746   53.8262   31.6663 H       973      M_A    0.0000
   6562 H          71.0307   54.5531   33.3171 H       973      M_A    0.0000
   6563 H          70.8998   51.8244   34.0737 H       973      M_A    0.0000
   6564 H          71.9600   51.6147   32.5892 H       973      M_A    0.0000
   6565 C          72.9351   52.8330   34.2492 C.3     974      M_A    0.0000
   6566 C          74.1379   53.3257   33.3181 C.3     974      M_A    0.0000
   6567 H          72.6252   53.6700   34.9656 H       974      M_A    0.0000
   6568 H          73.2758   51.9542   34.8983 H       974      M_A    0.0000
   6569 H          74.9817   52.5526   33.3253 H       974      M_A    0.0000
   6570 H          73.7834   53.4152   32.2337 H       974      M_A    0.0000
   6571 C          74.7409   54.7686   33.7964 C.3     975      M_A    0.0000
   6572 C          75.7904   55.3643   32.7475 C.3     975      M_A    0.0000
   6573 H          73.8735   55.5007   33.9425 H       975      M_A    0.0000
   6574 H          75.2382   54.6398   34.8190 H       975      M_A    0.0000
   6575 H          76.3672   54.5141   32.2435 H       975      M_A    0.0000
   6576 H          75.2390   55.9254   31.9163 H       975      M_A    0.0000
   6577 C          76.8597   56.3822   33.4509 C.3     976      M_A    0.0000
   6578 C          76.7740   57.8612   32.8496 C.3     976      M_A    0.0000
   6579 H          76.6612   56.4047   34.5778 H       976      M_A    0.0000
   6580 H          77.9152   55.9624   33.3114 H       976      M_A    0.0000
   6581 H          76.2738   57.8381   31.8206 H       976      M_A    0.0000
   6582 H          76.1192   58.5195   33.5186 H       976      M_A    0.0000
   6583 C          78.2466   58.5574   32.7043 C.3     977      M_A    0.0000
   6584 C          78.7006   59.3004   34.0454 C.3     977      M_A    0.0000
   6585 H          79.0096   57.7516   32.4246 H       977      M_A    0.0000
   6586 H          78.2192   59.3003   31.8342 H       977      M_A    0.0000
   6587 H          78.4640   60.4178   33.9742 H       977      M_A    0.0000
   6588 H          78.1094   58.8954   34.9377 H       977      M_A    0.0000
   6589 C          80.2979   59.1177   34.3447 C.3     978      M_A    0.0000
   6590 C          81.1844   60.2172   33.5953 C.3     978      M_A    0.0000
   6591 H          80.4707   59.1777   35.4744 H       978      M_A    0.0000
   6592 H          80.6166   58.0680   34.0188 H       978      M_A    0.0000
   6593 H          80.7656   60.4118   32.5482 H       978      M_A    0.0000
   6594 H          81.1351   61.2119   34.1591 H       978      M_A    0.0000
   6595 C          82.7501   59.7646   33.4611 C.3     979      M_A    0.0000
   6596 C          83.7263   60.6987   34.3160 C.3     979      M_A    0.0000
   6597 H          82.8501   58.6766   33.8018 H       979      M_A    0.0000
   6598 H          83.0486   59.7918   32.3566 H       979      M_A    0.0000
   6599 H          83.3195   61.7679   34.3461 H       979      M_A    0.0000
   6600 H          83.7700   60.3330   35.3995 H       979      M_A    0.0000
   6601 C          85.2443   60.7291   33.7083 C.3     980      M_A    0.0000
   6602 C          86.3157   60.1141   34.7233 C.3     980      M_A    0.0000
   6603 H          85.2588   60.1478   32.7226 H       980      M_A    0.0000
   6604 H          85.5190   61.8111   33.4559 H       980      M_A    0.0000
   6605 H          86.6943   60.9269   35.4344 H       980      M_A    0.0000
   6606 H          85.8240   59.3112   35.3740 H       980      M_A    0.0000
   6607 C          87.5955   59.4537   33.9485 C.3     981      M_A    0.0000
   6608 C          88.9259   59.4920   34.8344 C.3     981      M_A    0.0000
   6609 H          87.3407   58.3734   33.6698 H       981      M_A    0.0000
   6610 H          87.7621   60.0161   32.9658 H       981      M_A    0.0000
   6611 H          88.6570   59.4841   35.9468 H       981      M_A    0.0000
   6612 H          89.5532   58.5545   34.6413 H       981      M_A    0.0000
   6613 C          89.8404   60.8115   34.5226 C.3     982      M_A    0.0000
   6614 C          90.7062   61.2617   35.7890 C.3     982      M_A    0.0000
   6615 H          90.5291   60.5822   33.6378 H       982      M_A    0.0000
   6616 H          89.1544   61.6660   34.1923 H       982      M_A    0.0000
   6617 H          90.0901   61.9553   36.4591 H       982      M_A    0.0000
   6618 H          90.9783   60.3486   36.4231 H       982      M_A    0.0000
   6619 C          92.0824   62.0321   35.3567 C.3     983      M_A    0.0000
   6620 C          91.9131   63.6220   35.3586 C.3     983      M_A    0.0000
   6621 H          92.9183   61.7256   36.0758 H       983      M_A    0.0000
   6622 H          92.3955   61.6721   34.3164 H       983      M_A    0.0000
   6623 H          91.3480   63.9552   36.2964 H       983      M_A    0.0000
   6624 H          92.9399   64.1259   35.3971 H       983      M_A    0.0000
   6625 C          91.1103   64.1613   34.0399 C.3     984      M_A    0.0000
   6626 C          89.8031   64.9970   34.4261 C.3     984      M_A    0.0000
   6627 H          91.8189   64.8076   33.4155 H       984      M_A    0.0000
   6628 H          90.8246   63.2642   33.3894 H       984      M_A    0.0000
   6629 H          90.0902   65.9012   35.0661 H       984      M_A    0.0000
   6630 H          89.3065   65.4080   33.4805 H       984      M_A    0.0000
   6631 C          88.7115   64.0964   35.2457 C.3     985      M_A    0.0000
   6632 C          87.8015   64.9827   36.2167 C.3     985      M_A    0.0000
   6633 H          88.0544   63.5381   34.4932 H       985      M_A    0.0000
   6634 H          89.2693   63.2999   35.8493 H       985      M_A    0.0000
   6635 H          88.4434   65.4416   37.0456 H       985      M_A    0.0000
   6636 H          87.3420   65.8551   35.6358 H       985      M_A    0.0000
   6637 C          86.5977   64.1137   36.9022 C.3     986      M_A    0.0000
   6638 C          85.1592   64.7615   36.6428 C.3     986      M_A    0.0000
   6639 H          86.6289   63.0480   36.4862 H       986      M_A    0.0000
   6640 H          86.7949   64.0334   38.0267 H       986      M_A    0.0000
   6641 H          84.3670   64.2211   37.2674 H       986      M_A    0.0000
   6642 H          85.1545   65.8549   36.9807 H       986      M_A    0.0000
   6643 C          84.7243   64.6947   35.0677 C.3     987      M_A    0.0000
   6644 C          85.9458   65.0170   34.0877 C.3     987      M_A    0.0000
   6645 H          84.3062   63.6530   34.8443 H       987      M_A    0.0000
   6646 H          83.8714   65.4365   34.8887 H       987      M_A    0.0000
   6647 H          86.3579   66.0623   34.3048 H       987      M_A    0.0000
   6648 H          86.8023   64.2810   34.2730 H       987      M_A    0.0000
   6649 C          85.5141   64.9374   32.5123 C.3     988      M_A    0.0000
   6650 C          86.5614   65.6791   31.5588 C.3     988      M_A    0.0000
   6651 H          85.4196   63.8374   32.2109 H       988      M_A    0.0000
   6652 H          84.4753   65.4019   32.3906 H       988      M_A    0.0000
   6653 H          86.1508   66.6998   31.2437 H       988      M_A    0.0000
   6654 H          87.5358   65.8775   32.1254 H       988      M_A    0.0000
   6655 C          86.9004   64.8098   30.2158 C.3     989      M_A    0.0000
   6656 C          86.6403   65.6404   28.8746 C.3     989      M_A    0.0000
   6657 H          87.9925   64.4707   30.2617 H       989      M_A    0.0000
   6658 H          86.2611   63.8605   30.2197 H       989      M_A    0.0000
   6659 H          86.9753   65.0321   27.9650 H       989      M_A    0.0000
   6660 H          85.5201   65.8356   28.7450 H       989      M_A    0.0000
   6661 C          87.4288   67.0731   28.8702 C.3     990      M_A    0.0000
   6662 C          87.7378   67.5901   27.3891 C.3     990      M_A    0.0000
   6663 H          86.7959   67.8443   29.4310 H       990      M_A    0.0000
   6664 H          88.4044   66.9590   29.4575 H       990      M_A    0.0000
   6665 H          87.6955   66.7161   26.6516 H       990      M_A    0.0000
   6666 H          86.9363   68.3376   27.0592 H       990      M_A    0.0000
   6667 C          89.2041   68.3052   27.2755 C.3     991      M_A    0.0000
   6668 C          89.2439   69.4288   26.1388 C.2     991      M_A    0.0000
   6669 H          89.4706   68.7635   28.2898 H       991      M_A    0.0000
   6670 H          89.9906   67.5020   27.0610 H       991      M_A    0.0000
   6671 H          88.9774   68.9705   25.1245 H       991      M_A    0.0000
   6672 H          88.4574   70.2321   26.3533 H       991      M_A    0.0000
@<TRIPOS>BOND
     1     1     2      1
     2     1     4      1
     3     1     5      1
     4     1     6      1
     5     2     3      1
     6     2    13      1
     7     2    15      1
     8     3    16      1
     9     3    17      1
    10     4    18      1
    11     4    19      1
    12     5    20      1
    13     5    21      1
    14     5    22      1
    15     6     7      1
    16     7     8      1
    17     8     9      1
    18     8    10      1
    19     8    11      1
    20     9    12      1
    21     9    14      1
    22     9    23      1
    23    10    24      1
    24    10    25      1
    25    10    26      1
    26    11    27      1
    27    11    28      1
    28    12    29      1
    29    12    30      1
    30    13    31      1
    31    14    32      1
    32    33    34      1
    33    33    36      1
    34    33    37      1
    35    33    38      1
    36    34    35      1
    37    34    45      1
    38    34    47      1
    39    35    48      1
    40    35    49      1
    41    36    50      1
    42    36    51      1
    43    37    52      1
    44    37    53      1
    45    37    54      1
    46    38    39      1
    47    39    40      1
    48    40    41      1
    49    40    42      1
    50    40    43      1
    51    41    44      1
    52    41    46      1
    53    41    55      1
    54    42    56      1
    55    42    57      1
    56    42    58      1
    57    43    59      1
    58    43    60      1
    59    44    61      1
    60    44    62      1
    61    45    63      1
    62    46    64      1
    63    65    66      1
    64    65    68      1
    65    65    69      1
    66    65    70      1
    67    66    67      1
    68    66    77      1
    69    66    79      1
    70    67    80      1
    71    67    81      1
    72    68    82      1
    73    68    83      1
    74    69    84      1
    75    69    85      1
    76    69    86      1
    77    70    71      1
    78    71    72      1
    79    72    73      1
    80    72    74      1
    81    72    75      1
    82    73    76      1
    83    73    78      1
    84    73    87      1
    85    74    88      1
    86    74    89      1
    87    74    90      1
    88    75    91      1
    89    75    92      1
    90    76    93      1
    91    76    94      1
    92    77    95      1
    93    78    96      1
    94    97    98      1
    95    97   100      1
    96    97   101      1
    97    97   102      1
    98    98    99      1
    99    98   109      1
   100    98   111      1
   101    99   112      1
   102    99   113      1
   103   100   114      1
   104   100   115      1
   105   101   116      1
   106   101   117      1
   107   101   118      1
   108   102   103      1
   109   103   104      1
   110   104   105      1
   111   104   106      1
   112   104   107      1
   113   105   108      1
   114   105   110      1
   115   105   119      1
   116   106   120      1
   117   106   121      1
   118   106   122      1
   119   107   123      1
   120   107   124      1
   121   108   125      1
   122   108   126      1
   123   109   127      1
   124   110   128      1
   125   129   130      1
   126   129   132      1
   127   129   133      1
   128   129   134      1
   129   130   131      1
   130   130   141      1
   131   130   143      1
   132   131   144      1
   133   131   145      1
   134   132   146      1
   135   132   147      1
   136   133   148      1
   137   133   149      1
   138   133   150      1
   139   134   135      1
   140   135   136      1
   141   136   137      1
   142   136   138      1
   143   136   139      1
   144   137   140      1
   145   137   142      1
   146   137   151      1
   147   138   152      1
   148   138   153      1
   149   138   154      1
   150   139   155      1
   151   139   156      1
   152   140   157      1
   153   140   158      1
   154   141   159      1
   155   142   160      1
   156   161   162      1
   157   161   164      1
   158   161   166      1
   159   161   167      1
   160   162   163      1
   161   162   174      1
   162   162   176      1
   163   163   165      1
   164   163   177      1
   165   163   178      1
   166   164   179      1
   167   164   180      1
   168   166   181      1
   169   166   182      1
   170   166   183      1
   171   167   168      1
   172   168   169      1
   173   169   170      1
   174   169   171      1
   175   169   172      1
   176   170   173      1
   177   170   175      1
   178   170   184      1
   179   171   185      1
   180   171   186      1
   181   171   187      1
   182   172   188      1
   183   172   189      1
   184   173   190      1
   185   173   191      1
   186   174   192      1
   187   175   193      1
   188   194   195      1
   189   194   197      1
   190   194   199      1
   191   194   200      1
   192   195   196      1
   193   195   207      1
   194   195   209      1
   195   196   198      1
   196   196   210      1
   197   196   211      1
   198   197   212      1
   199   197   213      1
   200   199   214      1
   201   199   215      1
   202   199   216      1
   203   200   201      1
   204   201   202      1
   205   202   203      1
   206   202   204      1
   207   202   205      1
   208   203   206      1
   209   203   208      1
   210   203   217      1
   211   204   218      1
   212   204   219      1
   213   204   220      1
   214   205   221      1
   215   205   222      1
   216   206   223      1
   217   206   224      1
   218   207   225      1
   219   208   226      1
   220   227   228      1
   221   227   230      1
   222   227   232      1
   223   227   233      1
   224   228   229      1
   225   228   240      1
   226   228   242      1
   227   229   231      1
   228   229   243      1
   229   229   244      1
   230   230   245      1
   231   230   246      1
   232   232   247      1
   233   232   248      1
   234   232   249      1
   235   233   234      1
   236   234   235      1
   237   235   236      1
   238   235   237      1
   239   235   238      1
   240   236   239      1
   241   236   241      1
   242   236   250      1
   243   237   251      1
   244   237   252      1
   245   237   253      1
   246   238   254      1
   247   238   255      1
   248   239   256      1
   249   239   257      1
   250   240   258      1
   251   241   259      1
   252   260   261      1
   253   260   263      1
   254   260   265      1
   255   260   266      1
   256   261   262      1
   257   261   273      1
   258   261   275      1
   259   262   264      1
   260   262   276      1
   261   262   277      1
   262   263   278      1
   263   263   279      1
   264   265   280      1
   265   265   281      1
   266   265   282      1
   267   266   267      1
   268   267   268      1
   269   268   269      1
   270   268   270      1
   271   268   271      1
   272   269   272      1
   273   269   274      1
   274   269   283      1
   275   270   284      1
   276   270   285      1
   277   270   286      1
   278   271   287      1
   279   271   288      1
   280   272   289      1
   281   272   290      1
   282   273   291      1
   283   274   292      1
   284   293   294      1
   285   293   296      1
   286   293   298      1
   287   293   299      1
   288   294   295      1
   289   294   306      1
   290   294   308      1
   291   295   297      1
   292   295   309      1
   293   295   310      1
   294   296   311      1
   295   296   312      1
   296   298   313      1
   297   298   314      1
   298   298   315      1
   299   299   300      1
   300   300   301      1
   301   301   302      1
   302   301   303      1
   303   301   304      1
   304   302   305      1
   305   302   307      1
   306   302   316      1
   307   303   317      1
   308   303   318      1
   309   303   319      1
   310   304   320      1
   311   304   321      1
   312   305   322      1
   313   305   323      1
   314   306   324      1
   315   307   325      1
   316   326   327      1
   317   326   329      1
   318   326   331      1
   319   326   332      1
   320   327   328      1
   321   327   339      1
   322   327   341      1
   323   328   330      1
   324   328   342      1
   325   328   343      1
   326   329   344      1
   327   329   345      1
   328   331   346      1
   329   331   347      1
   330   331   348      1
   331   332   333      1
   332   333   334      1
   333   334   335      1
   334   334   336      1
   335   334   337      1
   336   335   338      1
   337   335   340      1
   338   335   349      1
   339   336   350      1
   340   336   351      1
   341   336   352      1
   342   337   353      1
   343   337   354      1
   344   338   355      1
   345   338   356      1
   346   339   357      1
   347   340   358      1
   348   359   360      1
   349   359   362      1
   350   359   364      1
   351   359   365      1
   352   360   361      1
   353   360   372      1
   354   360   374      1
   355   361   363      1
   356   361   375      1
   357   361   376      1
   358   362   377      1
   359   362   378      1
   360   364   379      1
   361   364   380      1
   362   364   381      1
   363   365   366      1
   364   366   367      1
   365   367   368      1
   366   367   369      1
   367   367   370      1
   368   368   371      1
   369   368   373      1
   370   368   382      1
   371   369   383      1
   372   369   384      1
   373   369   385      1
   374   370   386      1
   375   370   387      1
   376   371   388      1
   377   371   389      1
   378   372   390      1
   379   373   391      1
   380   392   393      1
   381   392   395      1
   382   392   397      1
   383   392   398      1
   384   393   394      1
   385   393   405      1
   386   393   407      1
   387   394   396      1
   388   394   408      1
   389   394   409      1
   390   395   410      1
   391   395   411      1
   392   397   412      1
   393   397   413      1
   394   397   414      1
   395   398   399      1
   396   399   400      1
   397   400   401      1
   398   400   402      1
   399   400   403      1
   400   401   404      1
   401   401   406      1
   402   401   415      1
   403   402   416      1
   404   402   417      1
   405   402   418      1
   406   403   419      1
   407   403   420      1
   408   404   421      1
   409   404   422      1
   410   405   423      1
   411   406   424      1
   412   425   426      1
   413   425   428      1
   414   425   430      1
   415   425   431      1
   416   426   427      1
   417   426   438      1
   418   426   440      1
   419   427   429      1
   420   427   441      1
   421   427   442      1
   422   428   443      1
   423   428   444      1
   424   430   445      1
   425   430   446      1
   426   430   447      1
   427   431   432      1
   428   432   433      1
   429   433   434      1
   430   433   435      1
   431   433   436      1
   432   434   437      1
   433   434   439      1
   434   434   448      1
   435   435   449      1
   436   435   450      1
   437   435   451      1
   438   436   452      1
   439   436   453      1
   440   437   454      1
   441   437   455      1
   442   438   456      1
   443   439   457      1
   444   458   459      1
   445   458   461      1
   446   458   463      1
   447   458   464      1
   448   459   460      1
   449   459   471      1
   450   459   473      1
   451   460   462      1
   452   460   474      1
   453   460   475      1
   454   461   476      1
   455   461   477      1
   456   463   478      1
   457   463   479      1
   458   463   480      1
   459   464   465      1
   460   465   466      1
   461   466   467      1
   462   466   468      1
   463   466   469      1
   464   467   470      1
   465   467   472      1
   466   467   481      1
   467   468   482      1
   468   468   483      1
   469   468   484      1
   470   469   485      1
   471   469   486      1
   472   470   487      1
   473   470   488      1
   474   471   489      1
   475   472   490      1
   476   491   492      1
   477   491   498      1
   478   491   499      1
   479   492   493      1
   480   492   495      1
   481   492   497      1
   482   493   494      1
   483   493   496      1
   484   493   500      1
   485   494   501      1
   486   494   502      1
   487   495   503      1
   488   495   504      1
   489   495   505      1
   490   496   506      1
   491   497   507      1
   492   508   509      1
   493   508   515      1
   494   508   516      1
   495   509   510      1
   496   509   512      1
   497   509   514      1
   498   510   511      1
   499   510   513      1
   500   510   517      1
   501   511   518      1
   502   511   519      1
   503   512   520      1
   504   512   521      1
   505   512   522      1
   506   513   523      1
   507   514   524      1
   508   525   526      1
   509   525   532      1
   510   525   533      1
   511   526   527      1
   512   526   529      1
   513   526   531      1
   514   527   528      1
   515   527   530      1
   516   527   534      1
   517   528   535      1
   518   528   536      1
   519   529   537      1
   520   529   538      1
   521   529   539      1
   522   530   540      1
   523   531   541      1
   524   542   543      1
   525   542   549      1
   526   542   550      1
   527   543   544      1
   528   543   546      1
   529   543   548      1
   530   544   545      1
   531   544   547      1
   532   544   551      1
   533   545   552      1
   534   545   553      1
   535   546   554      1
   536   546   555      1
   537   546   556      1
   538   547   557      1
   539   548   558      1
   540   559   560      1
   541   559   566      1
   542   559   567      1
   543   560   561      1
   544   560   563      1
   545   560   565      1
   546   561   562      1
   547   561   564      1
   548   561   568      1
   549   562   569      1
   550   562   570      1
   551   563   571      1
   552   563   572      1
   553   563   573      1
   554   564   574      1
   555   565   575      1
   556   576   577      1
   557   576   583      1
   558   576   584      1
   559   577   578      1
   560   577   580      1
   561   577   582      1
   562   578   579      1
   563   578   581      1
   564   578   585      1
   565   579   586      1
   566   579   587      1
   567   580   588      1
   568   580   589      1
   569   580   590      1
   570   581   591      1
   571   582   592      1
   572   593   594      1
   573   593   600      1
   574   593   601      1
   575   594   595      1
   576   594   597      1
   577   594   599      1
   578   595   596      1
   579   595   598      1
   580   595   602      1
   581   596   603      1
   582   596   604      1
   583   597   605      1
   584   597   606      1
   585   597   607      1
   586   598   608      1
   587   599   609      1
   588   610   611      1
   589   610   617      1
   590   610   618      1
   591   611   612      1
   592   611   614      1
   593   611   616      1
   594   612   613      1
   595   612   615      1
   596   612   619      1
   597   613   620      1
   598   613   621      1
   599   614   622      1
   600   614   623      1
   601   614   624      1
   602   615   625      1
   603   616   626      1
   604   627   628      1
   605   627   634      1
   606   627   635      1
   607   628   629      1
   608   628   631      1
   609   628   633      1
   610   629   630      1
   611   629   632      1
   612   629   636      1
   613   630   637      1
   614   630   638      1
   615   631   639      1
   616   631   640      1
   617   631   641      1
   618   632   642      1
   619   633   643      1
   620   644   645      1
   621   644   651      1
   622   644   652      1
   623   645   646      1
   624   645   648      1
   625   645   650      1
   626   646   647      1
   627   646   649      1
   628   646   653      1
   629   647   654      1
   630   647   655      1
   631   648   656      1
   632   648   657      1
   633   648   658      1
   634   649   659      1
   635   650   660      1
   636   661   662      1
   637   661   678      1
   638   662   663      1
   639   662   664      1
   640   662   665      1
   641   663   666      1
   642   663   667      1
   643   663   669      1
   644   664   670      1
   645   664   671      1
   646   664   672      1
   647   665   673      1
   648   665   674      1
   649   666   668      1
   650   666   675      1
   651   666   676      1
   652   667   677      1
   653   679   680      1
   654   679   696      1
   655   680   681      1
   656   680   682      1
   657   680   683      1
   658   681   684      1
   659   681   685      1
   660   681   687      1
   661   682   688      1
   662   682   689      1
   663   682   690      1
   664   683   691      1
   665   683   692      1
   666   684   686      1
   667   684   693      1
   668   684   694      1
   669   685   695      1
   670   697   698      1
   671   697   714      1
   672   698   699      1
   673   698   700      1
   674   698   701      1
   675   699   702      1
   676   699   703      1
   677   699   705      1
   678   700   706      1
   679   700   707      1
   680   700   708      1
   681   701   709      1
   682   701   710      1
   683   702   704      1
   684   702   711      1
   685   702   712      1
   686   703   713      1
   687   715   716      1
   688   715   732      1
   689   716   717      1
   690   716   718      1
   691   716   719      1
   692   717   720      1
   693   717   721      1
   694   717   723      1
   695   718   724      1
   696   718   725      1
   697   718   726      1
   698   719   727      1
   699   719   728      1
   700   720   722      1
   701   720   729      1
   702   720   730      1
   703   721   731      1
   704   733   734      1
   705   733   750      1
   706   734   735      1
   707   734   736      1
   708   734   737      1
   709   735   738      1
   710   735   739      1
   711   735   741      1
   712   736   742      1
   713   736   743      1
   714   736   744      1
   715   737   745      1
   716   737   746      1
   717   738   740      1
   718   738   747      1
   719   738   748      1
   720   739   749      1
   721   751   752      1
   722   751   759      1
   723   751   760      1
   724   752   753      1
   725   752   756      1
   726   752   758      1
   727   753   754      1
   728   753   757      1
   729   753   761      1
   730   754   755      1
   731   754   762      1
   732   754   763      1
   733   756   764      1
   734   756   765      1
   735   756   766      1
   736   767   768      1
   737   767   775      1
   738   767   776      1
   739   768   769      1
   740   768   772      1
   741   768   774      1
   742   769   770      1
   743   769   773      1
   744   769   777      1
   745   770   771      1
   746   770   778      1
   747   770   779      1
   748   772   780      1
   749   772   781      1
   750   772   782      1
   751   783   784      1
   752   783   791      1
   753   783   792      1
   754   784   785      1
   755   784   788      1
   756   784   790      1
   757   785   786      1
   758   785   789      1
   759   785   793      1
   760   786   787      1
   761   786   794      1
   762   786   795      1
   763   788   796      1
   764   788   797      1
   765   788   798      1
   766   799   800      1
   767   799   807      1
   768   799   808      1
   769   800   801      1
   770   800   804      1
   771   800   806      1
   772   801   802      1
   773   801   805      1
   774   801   809      1
   775   802   803      1
   776   802   810      1
   777   802   811      1
   778   804   812      1
   779   804   813      1
   780   804   814      1
   781   815   816      1
   782   815   823      1
   783   815   824      1
   784   816   817      1
   785   816   820      1
   786   816   822      1
   787   817   818      1
   788   817   821      1
   789   817   825      1
   790   818   819      1
   791   818   826      1
   792   818   827      1
   793   820   828      1
   794   820   829      1
   795   820   830      1
   796   831   832      1
   797   831   839      1
   798   831   840      1
   799   832   833      1
   800   832   836      1
   801   832   838      1
   802   833   834      1
   803   833   837      1
   804   833   841      1
   805   834   835      1
   806   834   842      1
   807   834   843      1
   808   836   844      1
   809   836   845      1
   810   836   846      1
   811   847   848      1
   812   847   855      1
   813   847   856      1
   814   848   849      1
   815   848   852      1
   816   848   854      1
   817   849   850      1
   818   849   853      1
   819   849   857      1
   820   850   851      1
   821   850   858      1
   822   850   859      1
   823   852   860      1
   824   852   861      1
   825   852   862      1
   826   863   864      1
   827   863   871      1
   828   863   872      1
   829   864   865      1
   830   864   868      1
   831   864   870      1
   832   865   866      1
   833   865   869      1
   834   865   873      1
   835   866   867      1
   836   866   874      1
   837   866   875      1
   838   868   876      1
   839   868   877      1
   840   868   878      1
   841   879   880      1
   842   879   887      1
   843   879   888      1
   844   880   881      1
   845   880   884      1
   846   880   886      1
   847   881   882      1
   848   881   885      1
   849   881   889      1
   850   882   883      1
   851   882   890      1
   852   882   891      1
   853   884   892      1
   854   884   893      1
   855   884   894      1
   856   895   896      1
   857   895   903      1
   858   895   904      1
   859   896   897      1
   860   896   900      1
   861   896   902      1
   862   897   898      1
   863   897   901      1
   864   897   905      1
   865   898   899      1
   866   898   906      1
   867   898   907      1
   868   900   908      1
   869   900   909      1
   870   900   910      1
   871   911   912      1
   872   911   919      1
   873   911   920      1
   874   912   913      1
   875   912   916      1
   876   912   918      1
   877   913   914      1
   878   913   917      1
   879   913   921      1
   880   914   915      1
   881   914   922      1
   882   914   923      1
   883   916   924      1
   884   916   925      1
   885   916   926      1
   886   927   928      1
   887   927   935      1
   888   927   936      1
   889   928   929      1
   890   928   932      1
   891   928   934      1
   892   929   930      1
   893   929   933      1
   894   929   937      1
   895   930   931      1
   896   930   938      1
   897   930   939      1
   898   932   940      1
   899   932   941      1
   900   932   942      1
   901   943   944      1
   902   943   951      1
   903   943   952      1
   904   944   945      1
   905   944   948      1
   906   944   950      1
   907   945   946      1
   908   945   949      1
   909   945   953      1
   910   946   947      1
   911   946   954      1
   912   946   955      1
   913   948   956      1
   914   948   957      1
   915   948   958      1
   916   959   960      1
   917   959   967      1
   918   959   968      1
   919   960   961      1
   920   960   964      1
   921   960   966      1
   922   961   962      1
   923   961   965      1
   924   961   969      1
   925   962   963      1
   926   962   970      1
   927   962   971      1
   928   964   972      1
   929   964   973      1
   930   964   974      1
   931   975   976      1
   932   975   983      1
   933   975   984      1
   934   976   977      1
   935   976   980      1
   936   976   982      1
   937   977   978      1
   938   977   981      1
   939   977   985      1
   940   978   979      1
   941   978   986      1
   942   978   987      1
   943   980   988      1
   944   980   989      1
   945   980   990      1
   946   991   992      1
   947   991   993      1
   948   991   994      1
   949   992   995      1
   950   992   996      1
   951   992   997      1
   952   997   998      1
   953   997   999      1
   954   997  1000      1
   955   998  1001      1
   956   998  1002      1
   957   998  1003      1
   958  1003  1004      1
   959  1003  1005      1
   960  1003  1006      1
   961  1004  1007      1
   962  1004  1008      1
   963  1004  1009      1
   964  1009  1010      1
   965  1009  1011      1
   966  1009  1012      1
   967  1010  1013      1
   968  1010  1014      1
   969  1010  1015      1
   970  1015  1016      1
   971  1015  1017      1
   972  1015  1018      1
   973  1016  1019      1
   974  1016  1020      1
   975  1016  1021      1
   976  1021  1022      1
   977  1021  1023      1
   978  1021  1024      1
   979  1022  1025      1
   980  1022  1026      1
   981  1022  1027      1
   982  1027  1028      1
   983  1027  1029      1
   984  1027  1030      1
   985  1028  1031      1
   986  1028  1032      1
   987  1028  1033      1
   988  1033  1034      1
   989  1033  1035      1
   990  1033  1036      1
   991  1034  1037      1
   992  1034  1038      1
   993  1034  1039      1
   994  1039  1040      1
   995  1039  1041      1
   996  1039  1042      1
   997  1040  1043      1
   998  1040  1044      1
   999  1040  1045      1
  1000  1045  1046      1
  1001  1045  1047      1
  1002  1045  1048      1
  1003  1046  1049      1
  1004  1046  1050      1
  1005  1046  1051      1
  1006  1051  1052      1
  1007  1051  1053      1
  1008  1051  1054      1
  1009  1052  1055      1
  1010  1052  1056      1
  1011  1052  1057      1
  1012  1057  1058      1
  1013  1057  1059      1
  1014  1057  1060      1
  1015  1058  1061      1
  1016  1058  1062      1
  1017  1058  1063      1
  1018  1063  1064      1
  1019  1063  1065      1
  1020  1063  1066      1
  1021  1064  1067      1
  1022  1064  1068      1
  1023  1064  1069      1
  1024  1069  1070      1
  1025  1069  1071      1
  1026  1069  1072      1
  1027  1070  1073      1
  1028  1070  1074      1
  1029  1070  1075      1
  1030  1075  1076      1
  1031  1075  1077      1
  1032  1075  1078      1
  1033  1076  1079      1
  1034  1076  1080      1
  1035  1076  1081      1
  1036  1081  1082      1
  1037  1081  1083      1
  1038  1081  1084      1
  1039  1082  1085      1
  1040  1082  1086      1
  1041  1087  1088      1
  1042  1087  1089      1
  1043  1087  1090      1
  1044  1088  1091      1
  1045  1088  1092      1
  1046  1088  1093      1
  1047  1093  1094      1
  1048  1093  1095      1
  1049  1093  1096      1
  1050  1094  1097      1
  1051  1094  1098      1
  1052  1094  1099      1
  1053  1099  1100      1
  1054  1099  1101      1
  1055  1099  1102      1
  1056  1100  1103      1
  1057  1100  1104      1
  1058  1100  1105      1
  1059  1105  1106      1
  1060  1105  1107      1
  1061  1105  1108      1
  1062  1106  1109      1
  1063  1106  1110      1
  1064  1106  1111      1
  1065  1111  1112      1
  1066  1111  1113      1
  1067  1111  1114      1
  1068  1112  1115      1
  1069  1112  1116      1
  1070  1112  1117      1
  1071  1117  1118      1
  1072  1117  1119      1
  1073  1117  1120      1
  1074  1118  1121      1
  1075  1118  1122      1
  1076  1118  1123      1
  1077  1123  1124      1
  1078  1123  1125      1
  1079  1123  1126      1
  1080  1124  1127      1
  1081  1124  1128      1
  1082  1124  1129      1
  1083  1129  1130      1
  1084  1129  1131      1
  1085  1129  1132      1
  1086  1130  1133      1
  1087  1130  1134      1
  1088  1135  1136      1
  1089  1135  1137      1
  1090  1135  1138      1
  1091  1136  1139      1
  1092  1136  1140      1
  1093  1136  1141      1
  1094  1141  1142      1
  1095  1141  1143      1
  1096  1141  1144      1
  1097  1142  1145      1
  1098  1142  1146      1
  1099  1142  1147      1
  1100  1147  1148      1
  1101  1147  1149      1
  1102  1147  1150      1
  1103  1148  1151      1
  1104  1148  1152      1
  1105  1148  1153      1
  1106  1153  1154      1
  1107  1153  1155      1
  1108  1153  1156      1
  1109  1154  1157      1
  1110  1154  1158      1
  1111  1154  1159      1
  1112  1159  1160      1
  1113  1159  1161      1
  1114  1159  1162      1
  1115  1160  1163      1
  1116  1160  1164      1
  1117  1160  1165      1
  1118  1165  1166      1
  1119  1165  1167      1
  1120  1165  1168      1
  1121  1166  1169      1
  1122  1166  1170      1
  1123  1166  1171      1
  1124  1171  1172      1
  1125  1171  1173      1
  1126  1171  1174      1
  1127  1172  1175      1
  1128  1172  1176      1
  1129  1172  1177      1
  1130  1177  1178      1
  1131  1177  1179      1
  1132  1177  1180      1
  1133  1178  1181      1
  1134  1178  1182      1
  1135  1178  1183      1
  1136  1183  1184      1
  1137  1183  1185      1
  1138  1183  1186      1
  1139  1184  1187      1
  1140  1184  1188      1
  1141  1184  1189      1
  1142  1189  1190      1
  1143  1189  1191      1
  1144  1189  1192      1
  1145  1190  1193      1
  1146  1190  1194      1
  1147  1190  1195      1
  1148  1195  1196      1
  1149  1195  1197      1
  1150  1195  1198      1
  1151  1196  1199      1
  1152  1196  1200      1
  1153  1196  1201      1
  1154  1201  1202      1
  1155  1201  1203      1
  1156  1201  1204      1
  1157  1202  1205      1
  1158  1202  1206      1
  1159  1202  1207      1
  1160  1207  1208      1
  1161  1207  1209      1
  1162  1207  1210      1
  1163  1208  1211      1
  1164  1208  1212      1
  1165  1208  1213      1
  1166  1213  1214      1
  1167  1213  1215      1
  1168  1213  1216      1
  1169  1214  1217      1
  1170  1214  1218      1
  1171  1214  1219      1
  1172  1219  1220      1
  1173  1219  1221      1
  1174  1219  1222      1
  1175  1220  1223      1
  1176  1220  1224      1
  1177  1220  1225      1
  1178  1225  1226      1
  1179  1225  1227      1
  1180  1225  1228      1
  1181  1226  1229      1
  1182  1226  1230      1
  1183  1226  1231      1
  1184  1231  1232      1
  1185  1231  1233      1
  1186  1231  1234      1
  1187  1232  1235      1
  1188  1232  1236      1
  1189  1232  1237      1
  1190  1237  1238      1
  1191  1237  1239      1
  1192  1237  1240      1
  1193  1238  1241      1
  1194  1238  1242      1
  1195  1238  1243      1
  1196  1243  1244      1
  1197  1243  1245      1
  1198  1243  1246      1
  1199  1244  1247      1
  1200  1244  1248      1
  1201  1249  1250      1
  1202  1249  1251      1
  1203  1249  1252      1
  1204  1250  1253      1
  1205  1250  1254      1
  1206  1250  1255      1
  1207  1255  1256      1
  1208  1255  1257      1
  1209  1255  1258      1
  1210  1256  1259      1
  1211  1256  1260      1
  1212  1256  1261      1
  1213  1261  1262      1
  1214  1261  1263      1
  1215  1261  1264      1
  1216  1262  1265      1
  1217  1262  1266      1
  1218  1262  1267      1
  1219  1267  1268      1
  1220  1267  1269      1
  1221  1267  1270      1
  1222  1268  1271      1
  1223  1268  1272      1
  1224  1268  1273      1
  1225  1273  1274      1
  1226  1273  1275      1
  1227  1273  1276      1
  1228  1274  1277      1
  1229  1274  1278      1
  1230  1274  1279      1
  1231  1279  1280      1
  1232  1279  1281      1
  1233  1279  1282      1
  1234  1280  1283      1
  1235  1280  1284      1
  1236  1280  1285      1
  1237  1285  1286      1
  1238  1285  1287      1
  1239  1285  1288      1
  1240  1286  1289      1
  1241  1286  1290      1
  1242  1286  1291      1
  1243  1291  1292      1
  1244  1291  1293      1
  1245  1291  1294      1
  1246  1292  1295      1
  1247  1292  1296      1
  1248  1292  1297      1
  1249  1297  1298      1
  1250  1297  1299      1
  1251  1297  1300      1
  1252  1298  1301      1
  1253  1298  1302      1
  1254  1298  1303      1
  1255  1303  1304      1
  1256  1303  1305      1
  1257  1303  1306      1
  1258  1304  1307      1
  1259  1304  1308      1
  1260  1304  1309      1
  1261  1309  1310      1
  1262  1309  1311      1
  1263  1309  1312      1
  1264  1310  1313      1
  1265  1310  1314      1
  1266  1310  1315      1
  1267  1315  1316      1
  1268  1315  1317      1
  1269  1315  1318      1
  1270  1316  1319      1
  1271  1316  1320      1
  1272  1316  1321      1
  1273  1321  1322      1
  1274  1321  1323      1
  1275  1321  1324      1
  1276  1322  1325      1
  1277  1322  1326      1
  1278  1327  1328      1
  1279  1327  1329      1
  1280  1327  1330      1
  1281  1328  1331      1
  1282  1328  1332      1
  1283  1328  1333      1
  1284  1333  1334      1
  1285  1333  1335      1
  1286  1333  1336      1
  1287  1334  1337      1
  1288  1334  1338      1
  1289  1334  1339      1
  1290  1339  1340      1
  1291  1339  1341      1
  1292  1339  1342      1
  1293  1340  1343      1
  1294  1340  1344      1
  1295  1340  1345      1
  1296  1345  1346      1
  1297  1345  1347      1
  1298  1345  1348      1
  1299  1346  1349      1
  1300  1346  1350      1
  1301  1346  1351      1
  1302  1351  1352      1
  1303  1351  1353      1
  1304  1351  1354      1
  1305  1352  1355      1
  1306  1352  1356      1
  1307  1352  1357      1
  1308  1357  1358      1
  1309  1357  1359      1
  1310  1357  1360      1
  1311  1358  1361      1
  1312  1358  1362      1
  1313  1358  1363      1
  1314  1363  1364      1
  1315  1363  1365      1
  1316  1363  1366      1
  1317  1364  1367      1
  1318  1364  1368      1
  1319  1364  1369      1
  1320  1369  1370      1
  1321  1369  1371      1
  1322  1369  1372      1
  1323  1370  1373      1
  1324  1370  1374      1
  1325  1370  1375      1
  1326  1375  1376      1
  1327  1375  1377      1
  1328  1375  1378      1
  1329  1376  1379      1
  1330  1376  1380      1
  1331  1376  1381      1
  1332  1381  1382      1
  1333  1381  1383      1
  1334  1381  1384      1
  1335  1382  1385      1
  1336  1382  1386      1
  1337  1382  1387      1
  1338  1387  1388      1
  1339  1387  1389      1
  1340  1387  1390      1
  1341  1388  1391      1
  1342  1388  1392      1
  1343  1388  1393      1
  1344  1393  1394      1
  1345  1393  1395      1
  1346  1393  1396      1
  1347  1394  1397      1
  1348  1394  1398      1
  1349  1394  1399      1
  1350  1399  1400      1
  1351  1399  1401      1
  1352  1399  1402      1
  1353  1400  1403      1
  1354  1400  1404      1
  1355  1400  1405      1
  1356  1405  1406      1
  1357  1405  1407      1
  1358  1405  1408      1
  1359  1406  1409      1
  1360  1406  1410      1
  1361  1406  1411      1
  1362  1411  1412      1
  1363  1411  1413      1
  1364  1411  1414      1
  1365  1412  1415      1
  1366  1412  1416      1
  1367  1412  1417      1
  1368  1417  1418      1
  1369  1417  1419      1
  1370  1417  1420      1
  1371  1418  1421      1
  1372  1418  1422      1
  1373  1418  1423      1
  1374  1423  1424      1
  1375  1423  1425      1
  1376  1423  1426      1
  1377  1424  1427      1
  1378  1424  1428      1
  1379  1424  1429      1
  1380  1429  1430      1
  1381  1429  1431      1
  1382  1429  1432      1
  1383  1430  1433      1
  1384  1430  1434      1
  1385  1430  1435      1
  1386  1435  1436      1
  1387  1435  1437      1
  1388  1435  1438      1
  1389  1436  1439      1
  1390  1436  1440      1
  1391  1436  1441      1
  1392  1441  1442      1
  1393  1441  1443      1
  1394  1441  1444      1
  1395  1442  1445      1
  1396  1442  1446      1
  1397  1442  1447      1
  1398  1447  1448      1
  1399  1447  1449      1
  1400  1447  1450      1
  1401  1448  1451      1
  1402  1448  1452      1
  1403  1453  1454      1
  1404  1453  1455      1
  1405  1453  1456      1
  1406  1454  1457      1
  1407  1454  1458      1
  1408  1454  1459      1
  1409  1459  1460      1
  1410  1459  1461      1
  1411  1459  1462      1
  1412  1460  1463      1
  1413  1460  1464      1
  1414  1460  1465      1
  1415  1465  1466      1
  1416  1465  1467      1
  1417  1465  1468      1
  1418  1466  1469      1
  1419  1466  1470      1
  1420  1466  1471      1
  1421  1471  1472      1
  1422  1471  1473      1
  1423  1471  1474      1
  1424  1472  1475      1
  1425  1472  1476      1
  1426  1472  1477      1
  1427  1477  1478      1
  1428  1477  1479      1
  1429  1477  1480      1
  1430  1478  1481      1
  1431  1478  1482      1
  1432  1478  1483      1
  1433  1483  1484      1
  1434  1483  1485      1
  1435  1483  1486      1
  1436  1484  1487      1
  1437  1484  1488      1
  1438  1484  1489      1
  1439  1489  1490      1
  1440  1489  1491      1
  1441  1489  1492      1
  1442  1490  1493      1
  1443  1490  1494      1
  1444  1490  1495      1
  1445  1495  1496      1
  1446  1495  1497      1
  1447  1495  1498      1
  1448  1496  1499      1
  1449  1496  1500      1
  1450  1496  1501      1
  1451  1501  1502      1
  1452  1501  1503      1
  1453  1501  1504      1
  1454  1502  1505      1
  1455  1502  1506      1
  1456  1502  1507      1
  1457  1507  1508      1
  1458  1507  1509      1
  1459  1507  1510      1
  1460  1508  1511      1
  1461  1508  1512      1
  1462  1513  1514      1
  1463  1513  1515      1
  1464  1513  1516      1
  1465  1514  1517      1
  1466  1514  1518      1
  1467  1514  1519      1
  1468  1519  1520      1
  1469  1519  1521      1
  1470  1519  1522      1
  1471  1520  1523      1
  1472  1520  1524      1
  1473  1520  1525      1
  1474  1525  1526      1
  1475  1525  1527      1
  1476  1525  1528      1
  1477  1526  1529      1
  1478  1526  1530      1
  1479  1526  1531      1
  1480  1531  1532      1
  1481  1531  1533      1
  1482  1531  1534      1
  1483  1532  1535      1
  1484  1532  1536      1
  1485  1532  1537      1
  1486  1537  1538      1
  1487  1537  1539      1
  1488  1537  1540      1
  1489  1538  1541      1
  1490  1538  1542      1
  1491  1538  1543      1
  1492  1543  1544      1
  1493  1543  1545      1
  1494  1543  1546      1
  1495  1544  1547      1
  1496  1544  1548      1
  1497  1544  1549      1
  1498  1549  1550      1
  1499  1549  1551      1
  1500  1549  1552      1
  1501  1550  1553      1
  1502  1550  1554      1
  1503  1550  1555      1
  1504  1555  1556      1
  1505  1555  1557      1
  1506  1555  1558      1
  1507  1556  1559      1
  1508  1556  1560      1
  1509  1556  1561      1
  1510  1561  1562      1
  1511  1561  1563      1
  1512  1561  1564      1
  1513  1562  1565      1
  1514  1562  1566      1
  1515  1562  1567      1
  1516  1567  1568      1
  1517  1567  1569      1
  1518  1567  1570      1
  1519  1568  1571      1
  1520  1568  1572      1
  1521  1568  1573      1
  1522  1573  1574      1
  1523  1573  1575      1
  1524  1573  1576      1
  1525  1574  1577      1
  1526  1574  1578      1
  1527  1574  1579      1
  1528  1579  1580      1
  1529  1579  1581      1
  1530  1579  1582      1
  1531  1580  1583      1
  1532  1580  1584      1
  1533  1580  1585      1
  1534  1585  1586      1
  1535  1585  1587      1
  1536  1585  1588      1
  1537  1586  1589      1
  1538  1586  1590      1
  1539  1586  1591      1
  1540  1591  1592      1
  1541  1591  1593      1
  1542  1591  1594      1
  1543  1592  1595      1
  1544  1592  1596      1
  1545  1592  1597      1
  1546  1597  1598      1
  1547  1597  1599      1
  1548  1597  1600      1
  1549  1598  1601      1
  1550  1598  1602      1
  1551  1598  1603      1
  1552  1603  1604      1
  1553  1603  1605      1
  1554  1603  1606      1
  1555  1604  1607      1
  1556  1604  1608      1
  1557  1604  1609      1
  1558  1609  1610      1
  1559  1609  1611      1
  1560  1609  1612      1
  1561  1610  1613      1
  1562  1610  1614      1
  1563  1610  1615      1
  1564  1615  1616      1
  1565  1615  1617      1
  1566  1615  1618      1
  1567  1616  1619      1
  1568  1616  1620      1
  1569  1616  1621      1
  1570  1621  1622      1
  1571  1621  1623      1
  1572  1621  1624      1
  1573  1622  1625      1
  1574  1622  1626      1
  1575  1622  1627      1
  1576  1627  1628      1
  1577  1627  1629      1
  1578  1627  1630      1
  1579  1628  1631      1
  1580  1628  1632      1
  1581  1628  1633      1
  1582  1633  1634      1
  1583  1633  1635      1
  1584  1633  1636      1
  1585  1634  1637      1
  1586  1634  1638      1
  1587  1634  1639      1
  1588  1639  1640      1
  1589  1639  1641      1
  1590  1639  1642      1
  1591  1640  1643      1
  1592  1640  1644      1
  1593  1640  1645      1
  1594  1645  1646      1
  1595  1645  1647      1
  1596  1645  1648      1
  1597  1646  1649      1
  1598  1646  1650      1
  1599  1646  1651      1
  1600  1651  1652      1
  1601  1651  1653      1
  1602  1651  1654      1
  1603  1652  1655      1
  1604  1652  1656      1
  1605  1652  1657      1
  1606  1657  1658      1
  1607  1657  1659      1
  1608  1657  1660      1
  1609  1658  1661      1
  1610  1658  1662      1
  1611  1663  1664      1
  1612  1663  1665      1
  1613  1663  1666      1
  1614  1664  1667      1
  1615  1664  1668      1
  1616  1664  1669      1
  1617  1669  1670      1
  1618  1669  1671      1
  1619  1669  1672      1
  1620  1670  1673      1
  1621  1670  1674      1
  1622  1670  1675      1
  1623  1675  1676      1
  1624  1675  1677      1
  1625  1675  1678      1
  1626  1676  1679      1
  1627  1676  1680      1
  1628  1676  1681      1
  1629  1681  1682      1
  1630  1681  1683      1
  1631  1681  1684      1
  1632  1682  1685      1
  1633  1682  1686      1
  1634  1682  1687      1
  1635  1687  1688      1
  1636  1687  1689      1
  1637  1687  1690      1
  1638  1688  1691      1
  1639  1688  1692      1
  1640  1688  1693      1
  1641  1693  1694      1
  1642  1693  1695      1
  1643  1693  1696      1
  1644  1694  1697      1
  1645  1694  1698      1
  1646  1694  1699      1
  1647  1699  1700      1
  1648  1699  1701      1
  1649  1699  1702      1
  1650  1700  1703      1
  1651  1700  1704      1
  1652  1700  1705      1
  1653  1705  1706      1
  1654  1705  1707      1
  1655  1705  1708      1
  1656  1706  1709      1
  1657  1706  1710      1
  1658  1706  1711      1
  1659  1711  1712      1
  1660  1711  1713      1
  1661  1711  1714      1
  1662  1712  1715      1
  1663  1712  1716      1
  1664  1712  1717      1
  1665  1717  1718      1
  1666  1717  1719      1
  1667  1717  1720      1
  1668  1718  1721      1
  1669  1718  1722      1
  1670  1718  1723      1
  1671  1723  1724      1
  1672  1723  1725      1
  1673  1723  1726      1
  1674  1724  1727      1
  1675  1724  1728      1
  1676  1724  1729      1
  1677  1729  1730      1
  1678  1729  1731      1
  1679  1729  1732      1
  1680  1730  1733      1
  1681  1730  1734      1
  1682  1735  1736      1
  1683  1735  1737      1
  1684  1735  1738      1
  1685  1736  1739      1
  1686  1736  1740      1
  1687  1736  1741      1
  1688  1741  1742      1
  1689  1741  1743      1
  1690  1741  1744      1
  1691  1742  1745      1
  1692  1742  1746      1
  1693  1742  1747      1
  1694  1747  1748      1
  1695  1747  1749      1
  1696  1747  1750      1
  1697  1748  1751      1
  1698  1748  1752      1
  1699  1748  1753      1
  1700  1753  1754      1
  1701  1753  1755      1
  1702  1753  1756      1
  1703  1754  1757      1
  1704  1754  1758      1
  1705  1754  1759      1
  1706  1759  1760      1
  1707  1759  1761      1
  1708  1759  1762      1
  1709  1760  1763      1
  1710  1760  1764      1
  1711  1760  1765      1
  1712  1765  1766      1
  1713  1765  1767      1
  1714  1765  1768      1
  1715  1766  1769      1
  1716  1766  1770      1
  1717  1766  1771      1
  1718  1771  1772      1
  1719  1771  1773      1
  1720  1771  1774      1
  1721  1772  1775      1
  1722  1772  1776      1
  1723  1777  1778      1
  1724  1777  1779      1
  1725  1777  1780      1
  1726  1778  1781      1
  1727  1778  1782      1
  1728  1778  1783      1
  1729  1783  1784      1
  1730  1783  1785      1
  1731  1783  1786      1
  1732  1784  1787      1
  1733  1784  1788      1
  1734  1784  1789      1
  1735  1789  1790      1
  1736  1789  1791      1
  1737  1789  1792      1
  1738  1790  1793      1
  1739  1790  1794      1
  1740  1790  1795      1
  1741  1795  1796      1
  1742  1795  1797      1
  1743  1795  1798      1
  1744  1796  1799      1
  1745  1796  1800      1
  1746  1796  1801      1
  1747  1801  1802      1
  1748  1801  1803      1
  1749  1801  1804      1
  1750  1802  1805      1
  1751  1802  1806      1
  1752  1802  1807      1
  1753  1807  1808      1
  1754  1807  1809      1
  1755  1807  1810      1
  1756  1808  1811      1
  1757  1808  1812      1
  1758  1808  1813      1
  1759  1813  1814      1
  1760  1813  1815      1
  1761  1813  1816      1
  1762  1814  1817      1
  1763  1814  1818      1
  1764  1814  1819      1
  1765  1819  1820      1
  1766  1819  1821      1
  1767  1819  1822      1
  1768  1820  1823      1
  1769  1820  1824      1
  1770  1820  1825      1
  1771  1825  1826      1
  1772  1825  1827      1
  1773  1825  1828      1
  1774  1826  1829      1
  1775  1826  1830      1
  1776  1826  1831      1
  1777  1831  1832      1
  1778  1831  1833      1
  1779  1831  1834      1
  1780  1832  1835      1
  1781  1832  1836      1
  1782  1832  1837      1
  1783  1837  1838      1
  1784  1837  1839      1
  1785  1837  1840      1
  1786  1838  1841      1
  1787  1838  1842      1
  1788  1838  1843      1
  1789  1843  1844      1
  1790  1843  1845      1
  1791  1843  1846      1
  1792  1844  1847      1
  1793  1844  1848      1
  1794  1844  1849      1
  1795  1849  1850      1
  1796  1849  1851      1
  1797  1849  1852      1
  1798  1850  1853      1
  1799  1850  1854      1
  1800  1850  1855      1
  1801  1855  1856      1
  1802  1855  1857      1
  1803  1855  1858      1
  1804  1856  1859      1
  1805  1856  1860      1
  1806  1856  1861      1
  1807  1861  1862      1
  1808  1861  1863      1
  1809  1861  1864      1
  1810  1862  1865      1
  1811  1862  1866      1
  1812  1862  1867      1
  1813  1867  1868      1
  1814  1867  1869      1
  1815  1867  1870      1
  1816  1868  1871      1
  1817  1868  1872      1
  1818  1868  1873      1
  1819  1873  1874      1
  1820  1873  1875      1
  1821  1873  1876      1
  1822  1874  1877      1
  1823  1874  1878      1
  1824  1874  1879      1
  1825  1879  1880      1
  1826  1879  1881      1
  1827  1879  1882      1
  1828  1880  1883      1
  1829  1880  1884      1
  1830  1885  1886      1
  1831  1885  1887      1
  1832  1885  1888      1
  1833  1886  1889      1
  1834  1886  1890      1
  1835  1886  1891      1
  1836  1891  1892      1
  1837  1891  1893      1
  1838  1891  1894      1
  1839  1892  1895      1
  1840  1892  1896      1
  1841  1892  1897      1
  1842  1897  1898      1
  1843  1897  1899      1
  1844  1897  1900      1
  1845  1898  1901      1
  1846  1898  1902      1
  1847  1898  1903      1
  1848  1903  1904      1
  1849  1903  1905      1
  1850  1903  1906      1
  1851  1904  1907      1
  1852  1904  1908      1
  1853  1904  1909      1
  1854  1909  1910      1
  1855  1909  1911      1
  1856  1909  1912      1
  1857  1910  1913      1
  1858  1910  1914      1
  1859  1910  1915      1
  1860  1915  1916      1
  1861  1915  1917      1
  1862  1915  1918      1
  1863  1916  1919      1
  1864  1916  1920      1
  1865  1916  1921      1
  1866  1921  1922      1
  1867  1921  1923      1
  1868  1921  1924      1
  1869  1922  1925      1
  1870  1922  1926      1
  1871  1922  1927      1
  1872  1927  1928      1
  1873  1927  1929      1
  1874  1927  1930      1
  1875  1928  1931      1
  1876  1928  1932      1
  1877  1928  1933      1
  1878  1933  1934      1
  1879  1933  1935      1
  1880  1933  1936      1
  1881  1934  1937      1
  1882  1934  1938      1
  1883  1934  1939      1
  1884  1939  1940      1
  1885  1939  1941      1
  1886  1939  1942      1
  1887  1940  1943      1
  1888  1940  1944      1
  1889  1940  1945      1
  1890  1945  1946      1
  1891  1945  1947      1
  1892  1945  1948      1
  1893  1946  1949      1
  1894  1946  1950      1
  1895  1951  1952      1
  1896  1951  1953      1
  1897  1951  1954      1
  1898  1952  1955      1
  1899  1952  1956      1
  1900  1952  1957      1
  1901  1957  1958      1
  1902  1957  1959      1
  1903  1957  1960      1
  1904  1958  1961      1
  1905  1958  1962      1
  1906  1958  1963      1
  1907  1963  1964      1
  1908  1963  1965      1
  1909  1963  1966      1
  1910  1964  1967      1
  1911  1964  1968      1
  1912  1964  1969      1
  1913  1969  1970      1
  1914  1969  1971      1
  1915  1969  1972      1
  1916  1970  1973      1
  1917  1970  1974      1
  1918  1970  1975      1
  1919  1975  1976      1
  1920  1975  1977      1
  1921  1975  1978      1
  1922  1976  1979      1
  1923  1976  1980      1
  1924  1976  1981      1
  1925  1981  1982      1
  1926  1981  1983      1
  1927  1981  1984      1
  1928  1982  1985      1
  1929  1982  1986      1
  1930  1982  1987      1
  1931  1987  1988      1
  1932  1987  1989      1
  1933  1987  1990      1
  1934  1988  1991      1
  1935  1988  1992      1
  1936  1988  1993      1
  1937  1993  1994      1
  1938  1993  1995      1
  1939  1993  1996      1
  1940  1994  1997      1
  1941  1994  1998      1
  1942  1994  1999      1
  1943  1999  2000      1
  1944  1999  2001      1
  1945  1999  2002      1
  1946  2000  2003      1
  1947  2000  2004      1
  1948  2000  2005      1
  1949  2005  2006      1
  1950  2005  2007      1
  1951  2005  2008      1
  1952  2006  2009      1
  1953  2006  2010      1
  1954  2006  2011      1
  1955  2011  2012      1
  1956  2011  2013      1
  1957  2011  2014      1
  1958  2012  2015      1
  1959  2012  2016      1
  1960  2012  2017      1
  1961  2017  2018      1
  1962  2017  2019      1
  1963  2017  2020      1
  1964  2018  2021      1
  1965  2018  2022      1
  1966  2023  2024      1
  1967  2023  2025      1
  1968  2023  2026      1
  1969  2024  2027      1
  1970  2024  2028      1
  1971  2024  2029      1
  1972  2029  2030      1
  1973  2029  2031      1
  1974  2029  2032      1
  1975  2030  2033      1
  1976  2030  2034      1
  1977  2030  2035      1
  1978  2035  2036      1
  1979  2035  2037      1
  1980  2035  2038      1
  1981  2036  2039      1
  1982  2036  2040      1
  1983  2036  2041      1
  1984  2041  2042      1
  1985  2041  2043      1
  1986  2041  2044      1
  1987  2042  2045      1
  1988  2042  2046      1
  1989  2042  2047      1
  1990  2047  2048      1
  1991  2047  2049      1
  1992  2047  2050      1
  1993  2048  2051      1
  1994  2048  2052      1
  1995  2048  2053      1
  1996  2053  2054      1
  1997  2053  2055      1
  1998  2053  2056      1
  1999  2054  2057      1
  2000  2054  2058      1
  2001  2054  2059      1
  2002  2059  2060      1
  2003  2059  2061      1
  2004  2059  2062      1
  2005  2060  2063      1
  2006  2060  2064      1
  2007  2060  2065      1
  2008  2065  2066      1
  2009  2065  2067      1
  2010  2065  2068      1
  2011  2066  2069      1
  2012  2066  2070      1
  2013  2066  2071      1
  2014  2071  2072      1
  2015  2071  2073      1
  2016  2071  2074      1
  2017  2072  2075      1
  2018  2072  2076      1
  2019  2072  2077      1
  2020  2077  2078      1
  2021  2077  2079      1
  2022  2077  2080      1
  2023  2078  2081      1
  2024  2078  2082      1
  2025  2078  2083      1
  2026  2083  2084      1
  2027  2083  2085      1
  2028  2083  2086      1
  2029  2084  2087      1
  2030  2084  2088      1
  2031  2084  2089      1
  2032  2089  2090      1
  2033  2089  2091      1
  2034  2089  2092      1
  2035  2090  2093      1
  2036  2090  2094      1
  2037  2090  2095      1
  2038  2095  2096      1
  2039  2095  2097      1
  2040  2095  2098      1
  2041  2096  2099      1
  2042  2096  2100      1
  2043  2096  2101      1
  2044  2101  2102      1
  2045  2101  2103      1
  2046  2101  2104      1
  2047  2102  2105      1
  2048  2102  2106      1
  2049  2102  2107      1
  2050  2107  2108      1
  2051  2107  2109      1
  2052  2107  2110      1
  2053  2108  2111      1
  2054  2108  2112      1
  2055  2108  2113      1
  2056  2113  2114      1
  2057  2113  2115      1
  2058  2113  2116      1
  2059  2114  2117      1
  2060  2114  2118      1
  2061  2114  2119      1
  2062  2119  2120      1
  2063  2119  2121      1
  2064  2119  2122      1
  2065  2120  2123      1
  2066  2120  2124      1
  2067  2120  2125      1
  2068  2125  2126      1
  2069  2125  2127      1
  2070  2125  2128      1
  2071  2126  2129      1
  2072  2126  2130      1
  2073  2126  2131      1
  2074  2131  2132      1
  2075  2131  2133      1
  2076  2131  2134      1
  2077  2132  2135      1
  2078  2132  2136      1
  2079  2137  2138      1
  2080  2137  2139      1
  2081  2137  2140      1
  2082  2138  2141      1
  2083  2138  2142      1
  2084  2138  2143      1
  2085  2143  2144      1
  2086  2143  2145      1
  2087  2143  2146      1
  2088  2144  2147      1
  2089  2144  2148      1
  2090  2144  2149      1
  2091  2149  2150      1
  2092  2149  2151      1
  2093  2149  2152      1
  2094  2150  2153      1
  2095  2150  2154      1
  2096  2150  2155      1
  2097  2155  2156      1
  2098  2155  2157      1
  2099  2155  2158      1
  2100  2156  2159      1
  2101  2156  2160      1
  2102  2156  2161      1
  2103  2161  2162      1
  2104  2161  2163      1
  2105  2161  2164      1
  2106  2162  2165      1
  2107  2162  2166      1
  2108  2162  2167      1
  2109  2167  2168      1
  2110  2167  2169      1
  2111  2167  2170      1
  2112  2168  2171      1
  2113  2168  2172      1
  2114  2168  2173      1
  2115  2173  2174      1
  2116  2173  2175      1
  2117  2173  2176      1
  2118  2174  2177      1
  2119  2174  2178      1
  2120  2174  2179      1
  2121  2179  2180      1
  2122  2179  2181      1
  2123  2179  2182      1
  2124  2180  2183      1
  2125  2180  2184      1
  2126  2180  2185      1
  2127  2185  2186      1
  2128  2185  2187      1
  2129  2185  2188      1
  2130  2186  2189      1
  2131  2186  2190      1
  2132  2186  2191      1
  2133  2191  2192      1
  2134  2191  2193      1
  2135  2191  2194      1
  2136  2192  2195      1
  2137  2192  2196      1
  2138  2192  2197      1
  2139  2197  2198      1
  2140  2197  2199      1
  2141  2197  2200      1
  2142  2198  2201      1
  2143  2198  2202      1
  2144  2198  2203      1
  2145  2203  2204      1
  2146  2203  2205      1
  2147  2203  2206      1
  2148  2204  2207      1
  2149  2204  2208      1
  2150  2204  2209      1
  2151  2209  2210      1
  2152  2209  2211      1
  2153  2209  2212      1
  2154  2210  2213      1
  2155  2210  2214      1
  2156  2210  2215      1
  2157  2215  2216      1
  2158  2215  2217      1
  2159  2215  2218      1
  2160  2216  2219      1
  2161  2216  2220      1
  2162  2216  2221      1
  2163  2221  2222      1
  2164  2221  2223      1
  2165  2221  2224      1
  2166  2222  2225      1
  2167  2222  2226      1
  2168  2222  2227      1
  2169  2227  2228      1
  2170  2227  2229      1
  2171  2227  2230      1
  2172  2228  2231      1
  2173  2228  2232      1
  2174  2228  2233      1
  2175  2233  2234      1
  2176  2233  2235      1
  2177  2233  2236      1
  2178  2234  2237      1
  2179  2234  2238      1
  2180  2234  2239      1
  2181  2239  2240      1
  2182  2239  2241      1
  2183  2239  2242      1
  2184  2240  2243      1
  2185  2240  2244      1
  2186  2240  2245      1
  2187  2245  2246      1
  2188  2245  2247      1
  2189  2245  2248      1
  2190  2246  2249      1
  2191  2246  2250      1
  2192  2246  2251      1
  2193  2251  2252      1
  2194  2251  2253      1
  2195  2251  2254      1
  2196  2252  2255      1
  2197  2252  2256      1
  2198  2252  2257      1
  2199  2257  2258      1
  2200  2257  2259      1
  2201  2257  2260      1
  2202  2258  2261      1
  2203  2258  2262      1
  2204  2258  2263      1
  2205  2263  2264      1
  2206  2263  2265      1
  2207  2263  2266      1
  2208  2264  2267      1
  2209  2264  2268      1
  2210  2264  2269      1
  2211  2269  2270      1
  2212  2269  2271      1
  2213  2269  2272      1
  2214  2270  2273      1
  2215  2270  2274      1
  2216  2270  2275      1
  2217  2275  2276      1
  2218  2275  2277      1
  2219  2275  2278      1
  2220  2276  2279      1
  2221  2276  2280      1
  2222  2276  2281      1
  2223  2281  2282      1
  2224  2281  2283      1
  2225  2281  2284      1
  2226  2282  2285      1
  2227  2282  2286      1
  2228  2282  2287      1
  2229  2287  2288      1
  2230  2287  2289      1
  2231  2287  2290      1
  2232  2288  2291      1
  2233  2288  2292      1
  2234  2288  2293      1
  2235  2293  2294      1
  2236  2293  2295      1
  2237  2293  2296      1
  2238  2294  2297      1
  2239  2294  2298      1
  2240  2294  2299      1
  2241  2299  2300      1
  2242  2299  2301      1
  2243  2299  2302      1
  2244  2300  2303      1
  2245  2300  2304      1
  2246  2300  2305      1
  2247  2305  2306      1
  2248  2305  2307      1
  2249  2305  2308      1
  2250  2306  2309      1
  2251  2306  2310      1
  2252  2306  2311      1
  2253  2311  2312      1
  2254  2311  2313      1
  2255  2311  2314      1
  2256  2312  2315      1
  2257  2312  2316      1
  2258  2312  2317      1
  2259  2317  2318      1
  2260  2317  2319      1
  2261  2317  2320      1
  2262  2318  2321      1
  2263  2318  2322      1
  2264  2318  2323      1
  2265  2323  2324      1
  2266  2323  2325      1
  2267  2323  2326      1
  2268  2324  2327      1
  2269  2324  2328      1
  2270  2324  2329      1
  2271  2329  2330      1
  2272  2329  2331      1
  2273  2329  2332      1
  2274  2330  2333      1
  2275  2330  2334      1
  2276  2330  2335      1
  2277  2335  2336      1
  2278  2335  2337      1
  2279  2335  2338      1
  2280  2336  2339      1
  2281  2336  2340      1
  2282  2341  2342      1
  2283  2341  2343      1
  2284  2341  2344      1
  2285  2342  2345      1
  2286  2342  2346      1
  2287  2342  2347      1
  2288  2347  2348      1
  2289  2347  2349      1
  2290  2347  2350      1
  2291  2348  2351      1
  2292  2348  2352      1
  2293  2348  2353      1
  2294  2353  2354      1
  2295  2353  2355      1
  2296  2353  2356      1
  2297  2354  2357      1
  2298  2354  2358      1
  2299  2354  2359      1
  2300  2359  2360      1
  2301  2359  2361      1
  2302  2359  2362      1
  2303  2360  2363      1
  2304  2360  2364      1
  2305  2360  2365      1
  2306  2365  2366      1
  2307  2365  2367      1
  2308  2365  2368      1
  2309  2366  2369      1
  2310  2366  2370      1
  2311  2366  2371      1
  2312  2371  2372      1
  2313  2371  2373      1
  2314  2371  2374      1
  2315  2372  2375      1
  2316  2372  2376      1
  2317  2372  2377      1
  2318  2377  2378      1
  2319  2377  2379      1
  2320  2377  2380      1
  2321  2378  2381      1
  2322  2378  2382      1
  2323  2378  2383      1
  2324  2383  2384      1
  2325  2383  2385      1
  2326  2383  2386      1
  2327  2384  2387      1
  2328  2384  2388      1
  2329  2384  2389      1
  2330  2389  2390      1
  2331  2389  2391      1
  2332  2389  2392      1
  2333  2390  2393      1
  2334  2390  2394      1
  2335  2390  2395      1
  2336  2395  2396      1
  2337  2395  2397      1
  2338  2395  2398      1
  2339  2396  2399      1
  2340  2396  2400      1
  2341  2401  2402      1
  2342  2401  2403      1
  2343  2401  2404      1
  2344  2402  2405      1
  2345  2402  2406      1
  2346  2402  2407      1
  2347  2407  2408      1
  2348  2407  2409      1
  2349  2407  2410      1
  2350  2408  2411      1
  2351  2408  2412      1
  2352  2408  2413      1
  2353  2413  2414      1
  2354  2413  2415      1
  2355  2413  2416      1
  2356  2414  2417      1
  2357  2414  2418      1
  2358  2414  2419      1
  2359  2419  2420      1
  2360  2419  2421      1
  2361  2419  2422      1
  2362  2420  2423      1
  2363  2420  2424      1
  2364  2420  2425      1
  2365  2425  2426      1
  2366  2425  2427      1
  2367  2425  2428      1
  2368  2426  2429      1
  2369  2426  2430      1
  2370  2426  2431      1
  2371  2431  2432      1
  2372  2431  2433      1
  2373  2431  2434      1
  2374  2432  2435      1
  2375  2432  2436      1
  2376  2432  2437      1
  2377  2437  2438      1
  2378  2437  2439      1
  2379  2437  2440      1
  2380  2438  2441      1
  2381  2438  2442      1
  2382  2438  2443      1
  2383  2443  2444      1
  2384  2443  2445      1
  2385  2443  2446      1
  2386  2444  2447      1
  2387  2444  2448      1
  2388  2444  2449      1
  2389  2449  2450      1
  2390  2449  2451      1
  2391  2449  2452      1
  2392  2450  2453      1
  2393  2450  2454      1
  2394  2450  2455      1
  2395  2455  2456      1
  2396  2455  2457      1
  2397  2455  2458      1
  2398  2456  2459      1
  2399  2456  2460      1
  2400  2456  2461      1
  2401  2461  2462      1
  2402  2461  2463      1
  2403  2461  2464      1
  2404  2462  2465      1
  2405  2462  2466      1
  2406  2462  2467      1
  2407  2467  2468      1
  2408  2467  2469      1
  2409  2467  2470      1
  2410  2468  2471      1
  2411  2468  2472      1
  2412  2468  2473      1
  2413  2473  2474      1
  2414  2473  2475      1
  2415  2473  2476      1
  2416  2474  2477      1
  2417  2474  2478      1
  2418  2474  2479      1
  2419  2479  2480      1
  2420  2479  2481      1
  2421  2479  2482      1
  2422  2480  2483      1
  2423  2480  2484      1
  2424  2480  2485      1
  2425  2485  2486      1
  2426  2485  2487      1
  2427  2485  2488      1
  2428  2486  2489      1
  2429  2486  2490      1
  2430  2486  2491      1
  2431  2491  2492      1
  2432  2491  2493      1
  2433  2491  2494      1
  2434  2492  2495      1
  2435  2492  2496      1
  2436  2492  2497      1
  2437  2497  2498      1
  2438  2497  2499      1
  2439  2497  2500      1
  2440  2498  2501      1
  2441  2498  2502      1
  2442  2498  2503      1
  2443  2503  2504      1
  2444  2503  2505      1
  2445  2503  2506      1
  2446  2504  2507      1
  2447  2504  2508      1
  2448  2504  2509      1
  2449  2509  2510      1
  2450  2509  2511      1
  2451  2509  2512      1
  2452  2510  2513      1
  2453  2510  2514      1
  2454  2510  2515      1
  2455  2515  2516      1
  2456  2515  2517      1
  2457  2515  2518      1
  2458  2516  2519      1
  2459  2516  2520      1
  2460  2516  2521      1
  2461  2521  2522      1
  2462  2521  2523      1
  2463  2521  2524      1
  2464  2522  2525      1
  2465  2522  2526      1
  2466  2522  2527      1
  2467  2527  2528      1
  2468  2527  2529      1
  2469  2527  2530      1
  2470  2528  2531      1
  2471  2528  2532      1
  2472  2528  2533      1
  2473  2533  2534      1
  2474  2533  2535      1
  2475  2533  2536      1
  2476  2534  2537      1
  2477  2534  2538      1
  2478  2534  2539      1
  2479  2539  2540      1
  2480  2539  2541      1
  2481  2539  2542      1
  2482  2540  2543      1
  2483  2540  2544      1
  2484  2540  2545      1
  2485  2545  2546      1
  2486  2545  2547      1
  2487  2545  2548      1
  2488  2546  2549      1
  2489  2546  2550      1
  2490  2546  2551      1
  2491  2551  2552      1
  2492  2551  2553      1
  2493  2551  2554      1
  2494  2552  2555      1
  2495  2552  2556      1
  2496  2552  2557      1
  2497  2557  2558      1
  2498  2557  2559      1
  2499  2557  2560      1
  2500  2558  2561      1
  2501  2558  2562      1
  2502  2558  2563      1
  2503  2563  2564      1
  2504  2563  2565      1
  2505  2563  2566      1
  2506  2564  2567      1
  2507  2564  2568      1
  2508  2564  2569      1
  2509  2569  2570      1
  2510  2569  2571      1
  2511  2569  2572      1
  2512  2570  2573      1
  2513  2570  2574      1
  2514  2570  2575      1
  2515  2575  2576      1
  2516  2575  2577      1
  2517  2575  2578      1
  2518  2576  2579      1
  2519  2576  2580      1
  2520  2576  2581      1
  2521  2581  2582      1
  2522  2581  2583      1
  2523  2581  2584      1
  2524  2582  2585      1
  2525  2582  2586      1
  2526  2582  2587      1
  2527  2587  2588      1
  2528  2587  2589      1
  2529  2587  2590      1
  2530  2588  2591      1
  2531  2588  2592      1
  2532  2588  2593      1
  2533  2593  2594      1
  2534  2593  2595      1
  2535  2593  2596      1
  2536  2594  2597      1
  2537  2594  2598      1
  2538  2594  2599      1
  2539  2599  2600      1
  2540  2599  2601      1
  2541  2599  2602      1
  2542  2600  2603      1
  2543  2600  2604      1
  2544  2600  2605      1
  2545  2605  2606      1
  2546  2605  2607      1
  2547  2605  2608      1
  2548  2606  2609      1
  2549  2606  2610      1
  2550  2606  2611      1
  2551  2611  2612      1
  2552  2611  2613      1
  2553  2611  2614      1
  2554  2612  2615      1
  2555  2612  2616      1
  2556  2612  2617      1
  2557  2617  2618      1
  2558  2617  2619      1
  2559  2617  2620      1
  2560  2618  2621      1
  2561  2618  2622      1
  2562  2618  2623      1
  2563  2623  2624      1
  2564  2623  2625      1
  2565  2623  2626      1
  2566  2624  2627      1
  2567  2624  2628      1
  2568  2624  2629      1
  2569  2629  2630      1
  2570  2629  2631      1
  2571  2629  2632      1
  2572  2630  2633      1
  2573  2630  2634      1
  2574  2630  2635      1
  2575  2635  2636      1
  2576  2635  2637      1
  2577  2635  2638      1
  2578  2636  2639      1
  2579  2636  2640      1
  2580  2636  2641      1
  2581  2641  2642      1
  2582  2641  2643      1
  2583  2641  2644      1
  2584  2642  2645      1
  2585  2642  2646      1
  2586  2642  2647      1
  2587  2647  2648      1
  2588  2647  2649      1
  2589  2647  2650      1
  2590  2648  2651      1
  2591  2648  2652      1
  2592  2648  2653      1
  2593  2653  2654      1
  2594  2653  2655      1
  2595  2653  2656      1
  2596  2654  2657      1
  2597  2654  2658      1
  2598  2654  2659      1
  2599  2659  2660      1
  2600  2659  2661      1
  2601  2659  2662      1
  2602  2660  2663      1
  2603  2660  2664      1
  2604  2660  2665      1
  2605  2665  2666      1
  2606  2665  2667      1
  2607  2665  2668      1
  2608  2666  2669      1
  2609  2666  2670      1
  2610  2666  2671      1
  2611  2671  2672      1
  2612  2671  2673      1
  2613  2671  2674      1
  2614  2672  2675      1
  2615  2672  2676      1
  2616  2677  2678      1
  2617  2677  2679      1
  2618  2677  2680      1
  2619  2678  2681      1
  2620  2678  2682      1
  2621  2678  2683      1
  2622  2683  2684      1
  2623  2683  2685      1
  2624  2683  2686      1
  2625  2684  2687      1
  2626  2684  2688      1
  2627  2684  2689      1
  2628  2689  2690      1
  2629  2689  2691      1
  2630  2689  2692      1
  2631  2690  2693      1
  2632  2690  2694      1
  2633  2690  2695      1
  2634  2695  2696      1
  2635  2695  2697      1
  2636  2695  2698      1
  2637  2696  2699      1
  2638  2696  2700      1
  2639  2696  2701      1
  2640  2701  2702      1
  2641  2701  2703      1
  2642  2701  2704      1
  2643  2702  2705      1
  2644  2702  2706      1
  2645  2702  2707      1
  2646  2707  2708      1
  2647  2707  2709      1
  2648  2707  2710      1
  2649  2708  2711      1
  2650  2708  2712      1
  2651  2708  2713      1
  2652  2713  2714      1
  2653  2713  2715      1
  2654  2713  2716      1
  2655  2714  2717      1
  2656  2714  2718      1
  2657  2714  2719      1
  2658  2719  2720      1
  2659  2719  2721      1
  2660  2719  2722      1
  2661  2720  2723      1
  2662  2720  2724      1
  2663  2720  2725      1
  2664  2725  2726      1
  2665  2725  2727      1
  2666  2725  2728      1
  2667  2726  2729      1
  2668  2726  2730      1
  2669  2726  2731      1
  2670  2731  2732      1
  2671  2731  2733      1
  2672  2731  2734      1
  2673  2732  2735      1
  2674  2732  2736      1
  2675  2732  2737      1
  2676  2737  2738      1
  2677  2737  2739      1
  2678  2737  2740      1
  2679  2738  2741      1
  2680  2738  2742      1
  2681  2738  2743      1
  2682  2743  2744      1
  2683  2743  2745      1
  2684  2743  2746      1
  2685  2744  2747      1
  2686  2744  2748      1
  2687  2744  2749      1
  2688  2749  2750      1
  2689  2749  2751      1
  2690  2749  2752      1
  2691  2750  2753      1
  2692  2750  2754      1
  2693  2750  2755      1
  2694  2755  2756      1
  2695  2755  2757      1
  2696  2755  2758      1
  2697  2756  2759      1
  2698  2756  2760      1
  2699  2756  2761      1
  2700  2761  2762      1
  2701  2761  2763      1
  2702  2761  2764      1
  2703  2762  2765      1
  2704  2762  2766      1
  2705  2762  2767      1
  2706  2767  2768      1
  2707  2767  2769      1
  2708  2767  2770      1
  2709  2768  2771      1
  2710  2768  2772      1
  2711  2768  2773      1
  2712  2773  2774      1
  2713  2773  2775      1
  2714  2773  2776      1
  2715  2774  2777      1
  2716  2774  2778      1
  2717  2774  2779      1
  2718  2779  2780      1
  2719  2779  2781      1
  2720  2779  2782      1
  2721  2780  2783      1
  2722  2780  2784      1
  2723  2780  2785      1
  2724  2785  2786      1
  2725  2785  2787      1
  2726  2785  2788      1
  2727  2786  2789      1
  2728  2786  2790      1
  2729  2786  2791      1
  2730  2791  2792      1
  2731  2791  2793      1
  2732  2791  2794      1
  2733  2792  2795      1
  2734  2792  2796      1
  2735  2792  2797      1
  2736  2797  2798      1
  2737  2797  2799      1
  2738  2797  2800      1
  2739  2798  2801      1
  2740  2798  2802      1
  2741  2798  2803      1
  2742  2803  2804      1
  2743  2803  2805      1
  2744  2803  2806      1
  2745  2804  2807      1
  2746  2804  2808      1
  2747  2804  2809      1
  2748  2809  2810      1
  2749  2809  2811      1
  2750  2809  2812      1
  2751  2810  2813      1
  2752  2810  2814      1
  2753  2810  2815      1
  2754  2815  2816      1
  2755  2815  2817      1
  2756  2815  2818      1
  2757  2816  2819      1
  2758  2816  2820      1
  2759  2821  2822      1
  2760  2821  2823      1
  2761  2821  2824      1
  2762  2822  2825      1
  2763  2822  2826      1
  2764  2822  2827      1
  2765  2827  2828      1
  2766  2827  2829      1
  2767  2827  2830      1
  2768  2828  2831      1
  2769  2828  2832      1
  2770  2828  2833      1
  2771  2833  2834      1
  2772  2833  2835      1
  2773  2833  2836      1
  2774  2834  2837      1
  2775  2834  2838      1
  2776  2834  2839      1
  2777  2839  2840      1
  2778  2839  2841      1
  2779  2839  2842      1
  2780  2840  2843      1
  2781  2840  2844      1
  2782  2840  2845      1
  2783  2845  2846      1
  2784  2845  2847      1
  2785  2845  2848      1
  2786  2846  2849      1
  2787  2846  2850      1
  2788  2846  2851      1
  2789  2851  2852      1
  2790  2851  2853      1
  2791  2851  2854      1
  2792  2852  2855      1
  2793  2852  2856      1
  2794  2852  2857      1
  2795  2857  2858      1
  2796  2857  2859      1
  2797  2857  2860      1
  2798  2858  2861      1
  2799  2858  2862      1
  2800  2858  2863      1
  2801  2863  2864      1
  2802  2863  2865      1
  2803  2863  2866      1
  2804  2864  2867      1
  2805  2864  2868      1
  2806  2864  2869      1
  2807  2869  2870      1
  2808  2869  2871      1
  2809  2869  2872      1
  2810  2870  2873      1
  2811  2870  2874      1
  2812  2870  2875      1
  2813  2875  2876      1
  2814  2875  2877      1
  2815  2875  2878      1
  2816  2876  2879      1
  2817  2876  2880      1
  2818  2876  2881      1
  2819  2881  2882      1
  2820  2881  2883      1
  2821  2881  2884      1
  2822  2882  2885      1
  2823  2882  2886      1
  2824  2882  2887      1
  2825  2887  2888      1
  2826  2887  2889      1
  2827  2887  2890      1
  2828  2888  2891      1
  2829  2888  2892      1
  2830  2893  2894      1
  2831  2893  2895      1
  2832  2893  2896      1
  2833  2894  2897      1
  2834  2894  2898      1
  2835  2894  2899      1
  2836  2899  2900      1
  2837  2899  2901      1
  2838  2899  2902      1
  2839  2900  2903      1
  2840  2900  2904      1
  2841  2900  2905      1
  2842  2905  2906      1
  2843  2905  2907      1
  2844  2905  2908      1
  2845  2906  2909      1
  2846  2906  2910      1
  2847  2906  2911      1
  2848  2911  2912      1
  2849  2911  2913      1
  2850  2911  2914      1
  2851  2912  2915      1
  2852  2912  2916      1
  2853  2912  2917      1
  2854  2917  2918      1
  2855  2917  2919      1
  2856  2917  2920      1
  2857  2918  2921      1
  2858  2918  2922      1
  2859  2918  2923      1
  2860  2923  2924      1
  2861  2923  2925      1
  2862  2923  2926      1
  2863  2924  2927      1
  2864  2924  2928      1
  2865  2924  2929      1
  2866  2929  2930      1
  2867  2929  2931      1
  2868  2929  2932      1
  2869  2930  2933      1
  2870  2930  2934      1
  2871  2930  2935      1
  2872  2935  2936      1
  2873  2935  2937      1
  2874  2935  2938      1
  2875  2936  2939      1
  2876  2936  2940      1
  2877  2936  2941      1
  2878  2941  2942      1
  2879  2941  2943      1
  2880  2941  2944      1
  2881  2942  2945      1
  2882  2942  2946      1
  2883  2942  2947      1
  2884  2947  2948      1
  2885  2947  2949      1
  2886  2947  2950      1
  2887  2948  2951      1
  2888  2948  2952      1
  2889  2948  2953      1
  2890  2953  2954      1
  2891  2953  2955      1
  2892  2953  2956      1
  2893  2954  2957      1
  2894  2954  2958      1
  2895  2959  2960      1
  2896  2959  2961      1
  2897  2959  2962      1
  2898  2960  2963      1
  2899  2960  2964      1
  2900  2960  2965      1
  2901  2965  2966      1
  2902  2965  2967      1
  2903  2965  2968      1
  2904  2966  2969      1
  2905  2966  2970      1
  2906  2966  2971      1
  2907  2971  2972      1
  2908  2971  2973      1
  2909  2971  2974      1
  2910  2972  2975      1
  2911  2972  2976      1
  2912  2972  2977      1
  2913  2977  2978      1
  2914  2977  2979      1
  2915  2977  2980      1
  2916  2978  2981      1
  2917  2978  2982      1
  2918  2978  2983      1
  2919  2983  2984      1
  2920  2983  2985      1
  2921  2983  2986      1
  2922  2984  2987      1
  2923  2984  2988      1
  2924  2984  2989      1
  2925  2989  2990      1
  2926  2989  2991      1
  2927  2989  2992      1
  2928  2990  2993      1
  2929  2990  2994      1
  2930  2990  2995      1
  2931  2995  2996      1
  2932  2995  2997      1
  2933  2995  2998      1
  2934  2996  2999      1
  2935  2996  3000      1
  2936  2996  3001      1
  2937  3001  3002      1
  2938  3001  3003      1
  2939  3001  3004      1
  2940  3002  3005      1
  2941  3002  3006      1
  2942  3002  3007      1
  2943  3007  3008      1
  2944  3007  3009      1
  2945  3007  3010      1
  2946  3008  3011      1
  2947  3008  3012      1
  2948  3008  3013      1
  2949  3013  3014      1
  2950  3013  3015      1
  2951  3013  3016      1
  2952  3014  3017      1
  2953  3014  3018      1
  2954  3014  3019      1
  2955  3019  3020      1
  2956  3019  3021      1
  2957  3019  3022      1
  2958  3020  3023      1
  2959  3020  3024      1
  2960  3025  3026      1
  2961  3025  3027      1
  2962  3025  3028      1
  2963  3026  3029      1
  2964  3026  3030      1
  2965  3026  3031      1
  2966  3031  3032      1
  2967  3031  3033      1
  2968  3031  3034      1
  2969  3032  3035      1
  2970  3032  3036      1
  2971  3032  3037      1
  2972  3037  3038      1
  2973  3037  3039      1
  2974  3037  3040      1
  2975  3038  3041      1
  2976  3038  3042      1
  2977  3038  3043      1
  2978  3043  3044      1
  2979  3043  3045      1
  2980  3043  3046      1
  2981  3044  3047      1
  2982  3044  3048      1
  2983  3044  3049      1
  2984  3049  3050      1
  2985  3049  3051      1
  2986  3049  3052      1
  2987  3050  3053      1
  2988  3050  3054      1
  2989  3050  3055      1
  2990  3055  3056      1
  2991  3055  3057      1
  2992  3055  3058      1
  2993  3056  3059      1
  2994  3056  3060      1
  2995  3056  3061      1
  2996  3061  3062      1
  2997  3061  3063      1
  2998  3061  3064      1
  2999  3062  3065      1
  3000  3062  3066      1
  3001  3062  3067      1
  3002  3067  3068      1
  3003  3067  3069      1
  3004  3067  3070      1
  3005  3068  3071      1
  3006  3068  3072      1
  3007  3068  3073      1
  3008  3073  3074      1
  3009  3073  3075      1
  3010  3073  3076      1
  3011  3074  3077      1
  3012  3074  3078      1
  3013  3074  3079      1
  3014  3079  3080      1
  3015  3079  3081      1
  3016  3079  3082      1
  3017  3080  3083      1
  3018  3080  3084      1
  3019  3080  3085      1
  3020  3085  3086      1
  3021  3085  3087      1
  3022  3085  3088      1
  3023  3086  3089      1
  3024  3086  3090      1
  3025  3086  3091      1
  3026  3091  3092      1
  3027  3091  3093      1
  3028  3091  3094      1
  3029  3092  3095      1
  3030  3092  3096      1
  3031  3092  3097      1
  3032  3097  3098      1
  3033  3097  3099      1
  3034  3097  3100      1
  3035  3098  3101      1
  3036  3098  3102      1
  3037  3098  3103      1
  3038  3103  3104      1
  3039  3103  3105      1
  3040  3103  3106      1
  3041  3104  3107      1
  3042  3104  3108      1
  3043  3104  3109      1
  3044  3109  3110      1
  3045  3109  3111      1
  3046  3109  3112      1
  3047  3110  3113      1
  3048  3110  3114      1
  3049  3115  3116      1
  3050  3115  3117      1
  3051  3115  3118      1
  3052  3116  3119      1
  3053  3116  3120      1
  3054  3116  3121      1
  3055  3121  3122      1
  3056  3121  3123      1
  3057  3121  3124      1
  3058  3122  3125      1
  3059  3122  3126      1
  3060  3122  3127      1
  3061  3127  3128      1
  3062  3127  3129      1
  3063  3127  3130      1
  3064  3128  3131      1
  3065  3128  3132      1
  3066  3128  3133      1
  3067  3133  3134      1
  3068  3133  3135      1
  3069  3133  3136      1
  3070  3134  3137      1
  3071  3134  3138      1
  3072  3134  3139      1
  3073  3139  3140      1
  3074  3139  3141      1
  3075  3139  3142      1
  3076  3140  3143      1
  3077  3140  3144      1
  3078  3140  3145      1
  3079  3145  3146      1
  3080  3145  3147      1
  3081  3145  3148      1
  3082  3146  3149      1
  3083  3146  3150      1
  3084  3146  3151      1
  3085  3151  3152      1
  3086  3151  3153      1
  3087  3151  3154      1
  3088  3152  3155      1
  3089  3152  3156      1
  3090  3152  3157      1
  3091  3157  3158      1
  3092  3157  3159      1
  3093  3157  3160      1
  3094  3158  3161      1
  3095  3158  3162      1
  3096  3158  3163      1
  3097  3163  3164      1
  3098  3163  3165      1
  3099  3163  3166      1
  3100  3164  3167      1
  3101  3164  3168      1
  3102  3164  3169      1
  3103  3169  3170      1
  3104  3169  3171      1
  3105  3169  3172      1
  3106  3170  3173      1
  3107  3170  3174      1
  3108  3170  3175      1
  3109  3175  3176      1
  3110  3175  3177      1
  3111  3175  3178      1
  3112  3176  3179      1
  3113  3176  3180      1
  3114  3176  3181      1
  3115  3181  3182      1
  3116  3181  3183      1
  3117  3181  3184      1
  3118  3182  3185      1
  3119  3182  3186      1
  3120  3182  3187      1
  3121  3187  3188      1
  3122  3187  3189      1
  3123  3187  3190      1
  3124  3188  3191      1
  3125  3188  3192      1
  3126  3188  3193      1
  3127  3193  3194      1
  3128  3193  3195      1
  3129  3193  3196      1
  3130  3194  3197      1
  3131  3194  3198      1
  3132  3194  3199      1
  3133  3199  3200      1
  3134  3199  3201      1
  3135  3199  3202      1
  3136  3200  3203      1
  3137  3200  3204      1
  3138  3200  3205      1
  3139  3205  3206      1
  3140  3205  3207      1
  3141  3205  3208      1
  3142  3206  3209      1
  3143  3206  3210      1
  3144  3206  3211      1
  3145  3211  3212      1
  3146  3211  3213      1
  3147  3211  3214      1
  3148  3212  3215      1
  3149  3212  3216      1
  3150  3217  3218      1
  3151  3217  3219      1
  3152  3217  3220      1
  3153  3218  3221      1
  3154  3218  3222      1
  3155  3218  3223      1
  3156  3223  3224      1
  3157  3223  3225      1
  3158  3223  3226      1
  3159  3224  3227      1
  3160  3224  3228      1
  3161  3224  3229      1
  3162  3229  3230      1
  3163  3229  3231      1
  3164  3229  3232      1
  3165  3230  3233      1
  3166  3230  3234      1
  3167  3230  3235      1
  3168  3235  3236      1
  3169  3235  3237      1
  3170  3235  3238      1
  3171  3236  3239      1
  3172  3236  3240      1
  3173  3236  3241      1
  3174  3241  3242      1
  3175  3241  3243      1
  3176  3241  3244      1
  3177  3242  3245      1
  3178  3242  3246      1
  3179  3242  3247      1
  3180  3247  3248      1
  3181  3247  3249      1
  3182  3247  3250      1
  3183  3248  3251      1
  3184  3248  3252      1
  3185  3248  3253      1
  3186  3253  3254      1
  3187  3253  3255      1
  3188  3253  3256      1
  3189  3254  3257      1
  3190  3254  3258      1
  3191  3254  3259      1
  3192  3259  3260      1
  3193  3259  3261      1
  3194  3259  3262      1
  3195  3260  3263      1
  3196  3260  3264      1
  3197  3260  3265      1
  3198  3265  3266      1
  3199  3265  3267      1
  3200  3265  3268      1
  3201  3266  3269      1
  3202  3266  3270      1
  3203  3266  3271      1
  3204  3271  3272      1
  3205  3271  3273      1
  3206  3271  3274      1
  3207  3272  3275      1
  3208  3272  3276      1
  3209  3272  3277      1
  3210  3277  3278      1
  3211  3277  3279      1
  3212  3277  3280      1
  3213  3278  3281      1
  3214  3278  3282      1
  3215  3278  3283      1
  3216  3283  3284      1
  3217  3283  3285      1
  3218  3283  3286      1
  3219  3284  3287      1
  3220  3284  3288      1
  3221  3284  3289      1
  3222  3289  3290      1
  3223  3289  3291      1
  3224  3289  3292      1
  3225  3290  3293      1
  3226  3290  3294      1
  3227  3290  3295      1
  3228  3295  3296      1
  3229  3295  3297      1
  3230  3295  3298      1
  3231  3296  3299      1
  3232  3296  3300      1
  3233  3296  3301      1
  3234  3301  3302      1
  3235  3301  3303      1
  3236  3301  3304      1
  3237  3302  3305      1
  3238  3302  3306      1
  3239  3302  3307      1
  3240  3307  3308      1
  3241  3307  3309      1
  3242  3307  3310      1
  3243  3308  3311      1
  3244  3308  3312      1
  3245  3308  3313      1
  3246  3313  3314      1
  3247  3313  3315      1
  3248  3313  3316      1
  3249  3314  3317      1
  3250  3314  3318      1
  3251  3314  3319      1
  3252  3319  3320      1
  3253  3319  3321      1
  3254  3319  3322      1
  3255  3320  3323      1
  3256  3320  3324      1
  3257  3320  3325      1
  3258  3325  3326      1
  3259  3325  3327      1
  3260  3325  3328      1
  3261  3326  3329      1
  3262  3326  3330      1
  3263  3326  3331      1
  3264  3331  3332      1
  3265  3331  3333      1
  3266  3331  3334      1
  3267  3332  3335      1
  3268  3332  3336      1
  3269  3332  3337      1
  3270  3337  3338      1
  3271  3337  3339      1
  3272  3337  3340      1
  3273  3338  3341      1
  3274  3338  3342      1
  3275  3338  3343      1
  3276  3343  3344      1
  3277  3343  3345      1
  3278  3343  3346      1
  3279  3344  3347      1
  3280  3344  3348      1
  3281  3349  3350      1
  3282  3349  3351      1
  3283  3349  3352      1
  3284  3350  3353      1
  3285  3350  3354      1
  3286  3350  3355      1
  3287  3355  3356      1
  3288  3355  3357      1
  3289  3355  3358      1
  3290  3356  3359      1
  3291  3356  3360      1
  3292  3356  3361      1
  3293  3361  3362      1
  3294  3361  3363      1
  3295  3361  3364      1
  3296  3362  3365      1
  3297  3362  3366      1
  3298  3362  3367      1
  3299  3367  3368      1
  3300  3367  3369      1
  3301  3367  3370      1
  3302  3368  3371      1
  3303  3368  3372      1
  3304  3368  3373      1
  3305  3373  3374      1
  3306  3373  3375      1
  3307  3373  3376      1
  3308  3374  3377      1
  3309  3374  3378      1
  3310  3374  3379      1
  3311  3379  3380      1
  3312  3379  3381      1
  3313  3379  3382      1
  3314  3380  3383      1
  3315  3380  3384      1
  3316  3380  3385      1
  3317  3385  3386      1
  3318  3385  3387      1
  3319  3385  3388      1
  3320  3386  3389      1
  3321  3386  3390      1
  3322  3386  3391      1
  3323  3391  3392      1
  3324  3391  3393      1
  3325  3391  3394      1
  3326  3392  3395      1
  3327  3392  3396      1
  3328  3392  3397      1
  3329  3397  3398      1
  3330  3397  3399      1
  3331  3397  3400      1
  3332  3398  3401      1
  3333  3398  3402      1
  3334  3398  3403      1
  3335  3403  3404      1
  3336  3403  3405      1
  3337  3403  3406      1
  3338  3404  3407      1
  3339  3404  3408      1
  3340  3404  3409      1
  3341  3409  3410      1
  3342  3409  3411      1
  3343  3409  3412      1
  3344  3410  3413      1
  3345  3410  3414      1
  3346  3410  3415      1
  3347  3415  3416      1
  3348  3415  3417      1
  3349  3415  3418      1
  3350  3416  3419      1
  3351  3416  3420      1
  3352  3416  3421      1
  3353  3421  3422      1
  3354  3421  3423      1
  3355  3421  3424      1
  3356  3422  3425      1
  3357  3422  3426      1
  3358  3422  3427      1
  3359  3427  3428      1
  3360  3427  3429      1
  3361  3427  3430      1
  3362  3428  3431      1
  3363  3428  3432      1
  3364  3428  3433      1
  3365  3433  3434      1
  3366  3433  3435      1
  3367  3433  3436      1
  3368  3434  3437      1
  3369  3434  3438      1
  3370  3434  3439      1
  3371  3439  3440      1
  3372  3439  3441      1
  3373  3439  3442      1
  3374  3440  3443      1
  3375  3440  3444      1
  3376  3440  3445      1
  3377  3445  3446      1
  3378  3445  3447      1
  3379  3445  3448      1
  3380  3446  3449      1
  3381  3446  3450      1
  3382  3446  3451      1
  3383  3451  3452      1
  3384  3451  3453      1
  3385  3451  3454      1
  3386  3452  3455      1
  3387  3452  3456      1
  3388  3452  3457      1
  3389  3457  3458      1
  3390  3457  3459      1
  3391  3457  3460      1
  3392  3458  3461      1
  3393  3458  3462      1
  3394  3458  3463      1
  3395  3463  3464      1
  3396  3463  3465      1
  3397  3463  3466      1
  3398  3464  3467      1
  3399  3464  3468      1
  3400  3464  3469      1
  3401  3469  3470      1
  3402  3469  3471      1
  3403  3469  3472      1
  3404  3470  3473      1
  3405  3470  3474      1
  3406  3470  3475      1
  3407  3475  3476      1
  3408  3475  3477      1
  3409  3475  3478      1
  3410  3476  3479      1
  3411  3476  3480      1
  3412  3476  3481      1
  3413  3481  3482      1
  3414  3481  3483      1
  3415  3481  3484      1
  3416  3482  3485      1
  3417  3482  3486      1
  3418  3482  3487      1
  3419  3487  3488      1
  3420  3487  3489      1
  3421  3487  3490      1
  3422  3488  3491      1
  3423  3488  3492      1
  3424  3488  3493      1
  3425  3493  3494      1
  3426  3493  3495      1
  3427  3493  3496      1
  3428  3494  3497      1
  3429  3494  3498      1
  3430  3494  3499      1
  3431  3499  3500      1
  3432  3499  3501      1
  3433  3499  3502      1
  3434  3500  3503      1
  3435  3500  3504      1
  3436  3500  3505      1
  3437  3505  3506      1
  3438  3505  3507      1
  3439  3505  3508      1
  3440  3506  3509      1
  3441  3506  3510      1
  3442  3506  3511      1
  3443  3511  3512      1
  3444  3511  3513      1
  3445  3511  3514      1
  3446  3512  3515      1
  3447  3512  3516      1
  3448  3512  3517      1
  3449  3517  3518      1
  3450  3517  3519      1
  3451  3517  3520      1
  3452  3518  3521      1
  3453  3518  3522      1
  3454  3518  3523      1
  3455  3523  3524      1
  3456  3523  3525      1
  3457  3523  3526      1
  3458  3524  3527      1
  3459  3524  3528      1
  3460  3524  3529      1
  3461  3529  3530      1
  3462  3529  3531      1
  3463  3529  3532      1
  3464  3530  3533      1
  3465  3530  3534      1
  3466  3530  3535      1
  3467  3535  3536      1
  3468  3535  3537      1
  3469  3535  3538      1
  3470  3536  3539      1
  3471  3536  3540      1
  3472  3536  3541      1
  3473  3541  3542      1
  3474  3541  3543      1
  3475  3541  3544      1
  3476  3542  3545      1
  3477  3542  3546      1
  3478  3542  3547      1
  3479  3547  3548      1
  3480  3547  3549      1
  3481  3547  3550      1
  3482  3548  3551      1
  3483  3548  3552      1
  3484  3553  3554      1
  3485  3553  3555      1
  3486  3553  3556      1
  3487  3554  3557      1
  3488  3554  3558      1
  3489  3554  3559      1
  3490  3559  3560      1
  3491  3559  3561      1
  3492  3559  3562      1
  3493  3560  3563      1
  3494  3560  3564      1
  3495  3560  3565      1
  3496  3565  3566      1
  3497  3565  3567      1
  3498  3565  3568      1
  3499  3566  3569      1
  3500  3566  3570      1
  3501  3566  3571      1
  3502  3571  3572      1
  3503  3571  3573      1
  3504  3571  3574      1
  3505  3572  3575      1
  3506  3572  3576      1
  3507  3572  3577      1
  3508  3577  3578      1
  3509  3577  3579      1
  3510  3577  3580      1
  3511  3578  3581      1
  3512  3578  3582      1
  3513  3578  3583      1
  3514  3583  3584      1
  3515  3583  3585      1
  3516  3583  3586      1
  3517  3584  3587      1
  3518  3584  3588      1
  3519  3584  3589      1
  3520  3589  3590      1
  3521  3589  3591      1
  3522  3589  3592      1
  3523  3590  3593      1
  3524  3590  3594      1
  3525  3590  3595      1
  3526  3595  3596      1
  3527  3595  3597      1
  3528  3595  3598      1
  3529  3596  3599      1
  3530  3596  3600      1
  3531  3596  3601      1
  3532  3601  3602      1
  3533  3601  3603      1
  3534  3601  3604      1
  3535  3602  3605      1
  3536  3602  3606      1
  3537  3602  3607      1
  3538  3607  3608      1
  3539  3607  3609      1
  3540  3607  3610      1
  3541  3608  3611      1
  3542  3608  3612      1
  3543  3608  3613      1
  3544  3613  3614      1
  3545  3613  3615      1
  3546  3613  3616      1
  3547  3614  3617      1
  3548  3614  3618      1
  3549  3614  3619      1
  3550  3619  3620      1
  3551  3619  3621      1
  3552  3619  3622      1
  3553  3620  3623      1
  3554  3620  3624      1
  3555  3620  3625      1
  3556  3625  3626      1
  3557  3625  3627      1
  3558  3625  3628      1
  3559  3626  3629      1
  3560  3626  3630      1
  3561  3626  3631      1
  3562  3631  3632      1
  3563  3631  3633      1
  3564  3631  3634      1
  3565  3632  3635      1
  3566  3632  3636      1
  3567  3632  3637      1
  3568  3637  3638      1
  3569  3637  3639      1
  3570  3637  3640      1
  3571  3638  3641      1
  3572  3638  3642      1
  3573  3638  3643      1
  3574  3643  3644      1
  3575  3643  3645      1
  3576  3643  3646      1
  3577  3644  3647      1
  3578  3644  3648      1
  3579  3644  3649      1
  3580  3649  3650      1
  3581  3649  3651      1
  3582  3649  3652      1
  3583  3650  3653      1
  3584  3650  3654      1
  3585  3650  3655      1
  3586  3655  3656      1
  3587  3655  3657      1
  3588  3655  3658      1
  3589  3656  3659      1
  3590  3656  3660      1
  3591  3656  3661      1
  3592  3661  3662      1
  3593  3661  3663      1
  3594  3661  3664      1
  3595  3662  3665      1
  3596  3662  3666      1
  3597  3662  3667      1
  3598  3667  3668      1
  3599  3667  3669      1
  3600  3667  3670      1
  3601  3668  3671      1
  3602  3668  3672      1
  3603  3668  3673      1
  3604  3673  3674      1
  3605  3673  3675      1
  3606  3673  3676      1
  3607  3674  3677      1
  3608  3674  3678      1
  3609  3674  3679      1
  3610  3679  3680      1
  3611  3679  3681      1
  3612  3679  3682      1
  3613  3680  3683      1
  3614  3680  3684      1
  3615  3680  3685      1
  3616  3685  3686      1
  3617  3685  3687      1
  3618  3685  3688      1
  3619  3686  3689      1
  3620  3686  3690      1
  3621  3686  3691      1
  3622  3691  3692      1
  3623  3691  3693      1
  3624  3691  3694      1
  3625  3692  3695      1
  3626  3692  3696      1
  3627  3692  3697      1
  3628  3697  3698      1
  3629  3697  3699      1
  3630  3697  3700      1
  3631  3698  3701      1
  3632  3698  3702      1
  3633  3698  3703      1
  3634  3703  3704      1
  3635  3703  3705      1
  3636  3703  3706      1
  3637  3704  3707      1
  3638  3704  3708      1
  3639  3704  3709      1
  3640  3709  3710      1
  3641  3709  3711      1
  3642  3709  3712      1
  3643  3710  3713      1
  3644  3710  3714      1
  3645  3710  3715      1
  3646  3715  3716      1
  3647  3715  3717      1
  3648  3715  3718      1
  3649  3716  3719      1
  3650  3716  3720      1
  3651  3716  3721      1
  3652  3721  3722      1
  3653  3721  3723      1
  3654  3721  3724      1
  3655  3722  3725      1
  3656  3722  3726      1
  3657  3722  3727      1
  3658  3727  3728      1
  3659  3727  3729      1
  3660  3727  3730      1
  3661  3728  3731      1
  3662  3728  3732      1
  3663  3728  3733      1
  3664  3733  3734      1
  3665  3733  3735      1
  3666  3733  3736      1
  3667  3734  3737      1
  3668  3734  3738      1
  3669  3734  3739      1
  3670  3739  3740      1
  3671  3739  3741      1
  3672  3739  3742      1
  3673  3740  3743      1
  3674  3740  3744      1
  3675  3740  3745      1
  3676  3745  3746      1
  3677  3745  3747      1
  3678  3745  3748      1
  3679  3746  3749      1
  3680  3746  3750      1
  3681  3746  3751      1
  3682  3751  3752      1
  3683  3751  3753      1
  3684  3751  3754      1
  3685  3752  3755      1
  3686  3752  3756      1
  3687  3752  3757      1
  3688  3757  3758      1
  3689  3757  3759      1
  3690  3757  3760      1
  3691  3758  3761      1
  3692  3758  3762      1
  3693  3758  3763      1
  3694  3763  3764      1
  3695  3763  3765      1
  3696  3763  3766      1
  3697  3764  3767      1
  3698  3764  3768      1
  3699  3764  3769      1
  3700  3769  3770      1
  3701  3769  3771      1
  3702  3769  3772      1
  3703  3770  3773      1
  3704  3770  3774      1
  3705  3775  3776      1
  3706  3775  3777      1
  3707  3775  3778      1
  3708  3776  3779      1
  3709  3776  3780      1
  3710  3776  3781      1
  3711  3781  3782      1
  3712  3781  3783      1
  3713  3781  3784      1
  3714  3782  3785      1
  3715  3782  3786      1
  3716  3782  3787      1
  3717  3787  3788      1
  3718  3787  3789      1
  3719  3787  3790      1
  3720  3788  3791      1
  3721  3788  3792      1
  3722  3788  3793      1
  3723  3793  3794      1
  3724  3793  3795      1
  3725  3793  3796      1
  3726  3794  3797      1
  3727  3794  3798      1
  3728  3794  3799      1
  3729  3799  3800      1
  3730  3799  3801      1
  3731  3799  3802      1
  3732  3800  3803      1
  3733  3800  3804      1
  3734  3800  3805      1
  3735  3805  3806      1
  3736  3805  3807      1
  3737  3805  3808      1
  3738  3806  3809      1
  3739  3806  3810      1
  3740  3806  3811      1
  3741  3811  3812      1
  3742  3811  3813      1
  3743  3811  3814      1
  3744  3812  3815      1
  3745  3812  3816      1
  3746  3812  3817      1
  3747  3817  3818      1
  3748  3817  3819      1
  3749  3817  3820      1
  3750  3818  3821      1
  3751  3818  3822      1
  3752  3818  3823      1
  3753  3823  3824      1
  3754  3823  3825      1
  3755  3823  3826      1
  3756  3824  3827      1
  3757  3824  3828      1
  3758  3824  3829      1
  3759  3829  3830      1
  3760  3829  3831      1
  3761  3829  3832      1
  3762  3830  3833      1
  3763  3830  3834      1
  3764  3830  3835      1
  3765  3835  3836      1
  3766  3835  3837      1
  3767  3835  3838      1
  3768  3836  3839      1
  3769  3836  3840      1
  3770  3836  3841      1
  3771  3841  3842      1
  3772  3841  3843      1
  3773  3841  3844      1
  3774  3842  3845      1
  3775  3842  3846      1
  3776  3842  3847      1
  3777  3847  3848      1
  3778  3847  3849      1
  3779  3847  3850      1
  3780  3848  3851      1
  3781  3848  3852      1
  3782  3848  3853      1
  3783  3853  3854      1
  3784  3853  3855      1
  3785  3853  3856      1
  3786  3854  3857      1
  3787  3854  3858      1
  3788  3854  3859      1
  3789  3859  3860      1
  3790  3859  3861      1
  3791  3859  3862      1
  3792  3860  3863      1
  3793  3860  3864      1
  3794  3860  3865      1
  3795  3865  3866      1
  3796  3865  3867      1
  3797  3865  3868      1
  3798  3866  3869      1
  3799  3866  3870      1
  3800  3866  3871      1
  3801  3871  3872      1
  3802  3871  3873      1
  3803  3871  3874      1
  3804  3872  3875      1
  3805  3872  3876      1
  3806  3872  3877      1
  3807  3877  3878      1
  3808  3877  3879      1
  3809  3877  3880      1
  3810  3878  3881      1
  3811  3878  3882      1
  3812  3878  3883      1
  3813  3883  3884      1
  3814  3883  3885      1
  3815  3883  3886      1
  3816  3884  3887      1
  3817  3884  3888      1
  3818  3889  3890      1
  3819  3889  3891      1
  3820  3889  3892      1
  3821  3890  3893      1
  3822  3890  3894      1
  3823  3890  3895      1
  3824  3895  3896      1
  3825  3895  3897      1
  3826  3895  3898      1
  3827  3896  3899      1
  3828  3896  3900      1
  3829  3896  3901      1
  3830  3901  3902      1
  3831  3901  3903      1
  3832  3901  3904      1
  3833  3902  3905      1
  3834  3902  3906      1
  3835  3902  3907      1
  3836  3907  3908      1
  3837  3907  3909      1
  3838  3907  3910      1
  3839  3908  3911      1
  3840  3908  3912      1
  3841  3908  3913      1
  3842  3913  3914      1
  3843  3913  3915      1
  3844  3913  3916      1
  3845  3914  3917      1
  3846  3914  3918      1
  3847  3914  3919      1
  3848  3919  3920      1
  3849  3919  3921      1
  3850  3919  3922      1
  3851  3920  3923      1
  3852  3920  3924      1
  3853  3920  3925      1
  3854  3925  3926      1
  3855  3925  3927      1
  3856  3925  3928      1
  3857  3926  3929      1
  3858  3926  3930      1
  3859  3926  3931      1
  3860  3931  3932      1
  3861  3931  3933      1
  3862  3931  3934      1
  3863  3932  3935      1
  3864  3932  3936      1
  3865  3932  3937      1
  3866  3937  3938      1
  3867  3937  3939      1
  3868  3937  3940      1
  3869  3938  3941      1
  3870  3938  3942      1
  3871  3938  3943      1
  3872  3943  3944      1
  3873  3943  3945      1
  3874  3943  3946      1
  3875  3944  3947      1
  3876  3944  3948      1
  3877  3944  3949      1
  3878  3949  3950      1
  3879  3949  3951      1
  3880  3949  3952      1
  3881  3950  3953      1
  3882  3950  3954      1
  3883  3950  3955      1
  3884  3955  3956      1
  3885  3955  3957      1
  3886  3955  3958      1
  3887  3956  3959      1
  3888  3956  3960      1
  3889  3956  3961      1
  3890  3961  3962      1
  3891  3961  3963      1
  3892  3961  3964      1
  3893  3962  3965      1
  3894  3962  3966      1
  3895  3962  3967      1
  3896  3967  3968      1
  3897  3967  3969      1
  3898  3967  3970      1
  3899  3968  3971      1
  3900  3968  3972      1
  3901  3968  3973      1
  3902  3973  3974      1
  3903  3973  3975      1
  3904  3973  3976      1
  3905  3974  3977      1
  3906  3974  3978      1
  3907  3974  3979      1
  3908  3979  3980      1
  3909  3979  3981      1
  3910  3979  3982      1
  3911  3980  3983      1
  3912  3980  3984      1
  3913  3980  3985      1
  3914  3985  3986      1
  3915  3985  3987      1
  3916  3985  3988      1
  3917  3986  3989      1
  3918  3986  3990      1
  3919  3986  3991      1
  3920  3991  3992      1
  3921  3991  3993      1
  3922  3991  3994      1
  3923  3992  3995      1
  3924  3992  3996      1
  3925  3992  3997      1
  3926  3997  3998      1
  3927  3997  3999      1
  3928  3997  4000      1
  3929  3998  4001      1
  3930  3998  4002      1
  3931  3998  4003      1
  3932  4003  4004      1
  3933  4003  4005      1
  3934  4003  4006      1
  3935  4004  4007      1
  3936  4004  4008      1
  3937  4004  4009      1
  3938  4009  4010      1
  3939  4009  4011      1
  3940  4009  4012      1
  3941  4010  4013      1
  3942  4010  4014      1
  3943  4015  4016      1
  3944  4015  4017      1
  3945  4015  4018      1
  3946  4016  4019      1
  3947  4016  4020      1
  3948  4016  4021      1
  3949  4021  4022      1
  3950  4021  4023      1
  3951  4021  4024      1
  3952  4022  4025      1
  3953  4022  4026      1
  3954  4022  4027      1
  3955  4027  4028      1
  3956  4027  4029      1
  3957  4027  4030      1
  3958  4028  4031      1
  3959  4028  4032      1
  3960  4028  4033      1
  3961  4033  4034      1
  3962  4033  4035      1
  3963  4033  4036      1
  3964  4034  4037      1
  3965  4034  4038      1
  3966  4034  4039      1
  3967  4039  4040      1
  3968  4039  4041      1
  3969  4039  4042      1
  3970  4040  4043      1
  3971  4040  4044      1
  3972  4040  4045      1
  3973  4045  4046      1
  3974  4045  4047      1
  3975  4045  4048      1
  3976  4046  4049      1
  3977  4046  4050      1
  3978  4046  4051      1
  3979  4051  4052      1
  3980  4051  4053      1
  3981  4051  4054      1
  3982  4052  4055      1
  3983  4052  4056      1
  3984  4052  4057      1
  3985  4057  4058      1
  3986  4057  4059      1
  3987  4057  4060      1
  3988  4058  4061      1
  3989  4058  4062      1
  3990  4058  4063      1
  3991  4063  4064      1
  3992  4063  4065      1
  3993  4063  4066      1
  3994  4064  4067      1
  3995  4064  4068      1
  3996  4064  4069      1
  3997  4069  4070      1
  3998  4069  4071      1
  3999  4069  4072      1
  4000  4070  4073      1
  4001  4070  4074      1
  4002  4070  4075      1
  4003  4075  4076      1
  4004  4075  4077      1
  4005  4075  4078      1
  4006  4076  4079      1
  4007  4076  4080      1
  4008  4076  4081      1
  4009  4081  4082      1
  4010  4081  4083      1
  4011  4081  4084      1
  4012  4082  4085      1
  4013  4082  4086      1
  4014  4082  4087      1
  4015  4087  4088      1
  4016  4087  4089      1
  4017  4087  4090      1
  4018  4088  4091      1
  4019  4088  4092      1
  4020  4088  4093      1
  4021  4093  4094      1
  4022  4093  4095      1
  4023  4093  4096      1
  4024  4094  4097      1
  4025  4094  4098      1
  4026  4094  4099      1
  4027  4099  4100      1
  4028  4099  4101      1
  4029  4099  4102      1
  4030  4100  4103      1
  4031  4100  4104      1
  4032  4100  4105      1
  4033  4105  4106      1
  4034  4105  4107      1
  4035  4105  4108      1
  4036  4106  4109      1
  4037  4106  4110      1
  4038  4106  4111      1
  4039  4111  4112      1
  4040  4111  4113      1
  4041  4111  4114      1
  4042  4112  4115      1
  4043  4112  4116      1
  4044  4112  4117      1
  4045  4117  4118      1
  4046  4117  4119      1
  4047  4117  4120      1
  4048  4118  4121      1
  4049  4118  4122      1
  4050  4118  4123      1
  4051  4123  4124      1
  4052  4123  4125      1
  4053  4123  4126      1
  4054  4124  4127      1
  4055  4124  4128      1
  4056  4124  4129      1
  4057  4129  4130      1
  4058  4129  4131      1
  4059  4129  4132      1
  4060  4130  4133      1
  4061  4130  4134      1
  4062  4135  4136      1
  4063  4135  4137      1
  4064  4135  4138      1
  4065  4136  4139      1
  4066  4136  4140      1
  4067  4136  4141      1
  4068  4141  4142      1
  4069  4141  4143      1
  4070  4141  4144      1
  4071  4142  4145      1
  4072  4142  4146      1
  4073  4142  4147      1
  4074  4147  4148      1
  4075  4147  4149      1
  4076  4147  4150      1
  4077  4148  4151      1
  4078  4148  4152      1
  4079  4148  4153      1
  4080  4153  4154      1
  4081  4153  4155      1
  4082  4153  4156      1
  4083  4154  4157      1
  4084  4154  4158      1
  4085  4154  4159      1
  4086  4159  4160      1
  4087  4159  4161      1
  4088  4159  4162      1
  4089  4160  4163      1
  4090  4160  4164      1
  4091  4160  4165      1
  4092  4165  4166      1
  4093  4165  4167      1
  4094  4165  4168      1
  4095  4166  4169      1
  4096  4166  4170      1
  4097  4166  4171      1
  4098  4171  4172      1
  4099  4171  4173      1
  4100  4171  4174      1
  4101  4172  4175      1
  4102  4172  4176      1
  4103  4172  4177      1
  4104  4177  4178      1
  4105  4177  4179      1
  4106  4177  4180      1
  4107  4178  4181      1
  4108  4178  4182      1
  4109  4178  4183      1
  4110  4183  4184      1
  4111  4183  4185      1
  4112  4183  4186      1
  4113  4184  4187      1
  4114  4184  4188      1
  4115  4184  4189      1
  4116  4189  4190      1
  4117  4189  4191      1
  4118  4189  4192      1
  4119  4190  4193      1
  4120  4190  4194      1
  4121  4190  4195      1
  4122  4195  4196      1
  4123  4195  4197      1
  4124  4195  4198      1
  4125  4196  4199      1
  4126  4196  4200      1
  4127  4196  4201      1
  4128  4201  4202      1
  4129  4201  4203      1
  4130  4201  4204      1
  4131  4202  4205      1
  4132  4202  4206      1
  4133  4202  4207      1
  4134  4207  4208      1
  4135  4207  4209      1
  4136  4207  4210      1
  4137  4208  4211      1
  4138  4208  4212      1
  4139  4208  4213      1
  4140  4213  4214      1
  4141  4213  4215      1
  4142  4213  4216      1
  4143  4214  4217      1
  4144  4214  4218      1
  4145  4214  4219      1
  4146  4219  4220      1
  4147  4219  4221      1
  4148  4219  4222      1
  4149  4220  4223      1
  4150  4220  4224      1
  4151  4220  4225      1
  4152  4225  4226      1
  4153  4225  4227      1
  4154  4225  4228      1
  4155  4226  4229      1
  4156  4226  4230      1
  4157  4226  4231      1
  4158  4231  4232      1
  4159  4231  4233      1
  4160  4231  4234      1
  4161  4232  4235      1
  4162  4232  4236      1
  4163  4232  4237      1
  4164  4237  4238      1
  4165  4237  4239      1
  4166  4237  4240      1
  4167  4238  4241      1
  4168  4238  4242      1
  4169  4238  4243      1
  4170  4243  4244      1
  4171  4243  4245      1
  4172  4243  4246      1
  4173  4244  4247      1
  4174  4244  4248      1
  4175  4244  4249      1
  4176  4249  4250      1
  4177  4249  4251      1
  4178  4249  4252      1
  4179  4250  4253      1
  4180  4250  4254      1
  4181  4250  4255      1
  4182  4255  4256      1
  4183  4255  4257      1
  4184  4255  4258      1
  4185  4256  4259      1
  4186  4256  4260      1
  4187  4256  4261      1
  4188  4261  4262      1
  4189  4261  4263      1
  4190  4261  4264      1
  4191  4262  4265      1
  4192  4262  4266      1
  4193  4262  4267      1
  4194  4267  4268      1
  4195  4267  4269      1
  4196  4267  4270      1
  4197  4268  4271      1
  4198  4268  4272      1
  4199  4268  4273      1
  4200  4273  4274      1
  4201  4273  4275      1
  4202  4273  4276      1
  4203  4274  4277      1
  4204  4274  4278      1
  4205  4274  4279      1
  4206  4279  4280      1
  4207  4279  4281      1
  4208  4279  4282      1
  4209  4280  4283      1
  4210  4280  4284      1
  4211  4280  4285      1
  4212  4285  4286      1
  4213  4285  4287      1
  4214  4285  4288      1
  4215  4286  4289      1
  4216  4286  4290      1
  4217  4286  4291      1
  4218  4291  4292      1
  4219  4291  4293      1
  4220  4291  4294      1
  4221  4292  4295      1
  4222  4292  4296      1
  4223  4292  4297      1
  4224  4297  4298      1
  4225  4297  4299      1
  4226  4297  4300      1
  4227  4298  4301      1
  4228  4298  4302      1
  4229  4298  4303      1
  4230  4303  4304      1
  4231  4303  4305      1
  4232  4303  4306      1
  4233  4304  4307      1
  4234  4304  4308      1
  4235  4304  4309      1
  4236  4309  4310      1
  4237  4309  4311      1
  4238  4309  4312      1
  4239  4310  4313      1
  4240  4310  4314      1
  4241  4310  4315      1
  4242  4315  4316      1
  4243  4315  4317      1
  4244  4315  4318      1
  4245  4316  4319      1
  4246  4316  4320      1
  4247  4316  4321      1
  4248  4321  4322      1
  4249  4321  4323      1
  4250  4321  4324      1
  4251  4322  4325      1
  4252  4322  4326      1
  4253  4322  4327      1
  4254  4327  4328      1
  4255  4327  4329      1
  4256  4327  4330      1
  4257  4328  4331      1
  4258  4328  4332      1
  4259  4328  4333      1
  4260  4333  4334      1
  4261  4333  4335      1
  4262  4333  4336      1
  4263  4334  4337      1
  4264  4334  4338      1
  4265  4339  4340      1
  4266  4339  4341      1
  4267  4339  4342      1
  4268  4340  4343      1
  4269  4340  4344      1
  4270  4340  4345      1
  4271  4345  4346      1
  4272  4345  4347      1
  4273  4345  4348      1
  4274  4346  4349      1
  4275  4346  4350      1
  4276  4346  4351      1
  4277  4351  4352      1
  4278  4351  4353      1
  4279  4351  4354      1
  4280  4352  4355      1
  4281  4352  4356      1
  4282  4352  4357      1
  4283  4357  4358      1
  4284  4357  4359      1
  4285  4357  4360      1
  4286  4358  4361      1
  4287  4358  4362      1
  4288  4358  4363      1
  4289  4363  4364      1
  4290  4363  4365      1
  4291  4363  4366      1
  4292  4364  4367      1
  4293  4364  4368      1
  4294  4364  4369      1
  4295  4369  4370      1
  4296  4369  4371      1
  4297  4369  4372      1
  4298  4370  4373      1
  4299  4370  4374      1
  4300  4370  4375      1
  4301  4375  4376      1
  4302  4375  4377      1
  4303  4375  4378      1
  4304  4376  4379      1
  4305  4376  4380      1
  4306  4376  4381      1
  4307  4381  4382      1
  4308  4381  4383      1
  4309  4381  4384      1
  4310  4382  4385      1
  4311  4382  4386      1
  4312  4382  4387      1
  4313  4387  4388      1
  4314  4387  4389      1
  4315  4387  4390      1
  4316  4388  4391      1
  4317  4388  4392      1
  4318  4388  4393      1
  4319  4393  4394      1
  4320  4393  4395      1
  4321  4393  4396      1
  4322  4394  4397      1
  4323  4394  4398      1
  4324  4399  4400      1
  4325  4399  4401      1
  4326  4399  4402      1
  4327  4400  4403      1
  4328  4400  4404      1
  4329  4400  4405      1
  4330  4405  4406      1
  4331  4405  4407      1
  4332  4405  4408      1
  4333  4406  4409      1
  4334  4406  4410      1
  4335  4406  4411      1
  4336  4411  4412      1
  4337  4411  4413      1
  4338  4411  4414      1
  4339  4412  4415      1
  4340  4412  4416      1
  4341  4412  4417      1
  4342  4417  4418      1
  4343  4417  4419      1
  4344  4417  4420      1
  4345  4418  4421      1
  4346  4418  4422      1
  4347  4418  4423      1
  4348  4423  4424      1
  4349  4423  4425      1
  4350  4423  4426      1
  4351  4424  4427      1
  4352  4424  4428      1
  4353  4424  4429      1
  4354  4429  4430      1
  4355  4429  4431      1
  4356  4429  4432      1
  4357  4430  4433      1
  4358  4430  4434      1
  4359  4430  4435      1
  4360  4435  4436      1
  4361  4435  4437      1
  4362  4435  4438      1
  4363  4436  4439      1
  4364  4436  4440      1
  4365  4436  4441      1
  4366  4441  4442      1
  4367  4441  4443      1
  4368  4441  4444      1
  4369  4442  4445      1
  4370  4442  4446      1
  4371  4442  4447      1
  4372  4447  4448      1
  4373  4447  4449      1
  4374  4447  4450      1
  4375  4448  4451      1
  4376  4448  4452      1
  4377  4448  4453      1
  4378  4453  4454      1
  4379  4453  4455      1
  4380  4453  4456      1
  4381  4454  4457      1
  4382  4454  4458      1
  4383  4454  4459      1
  4384  4459  4460      1
  4385  4459  4461      1
  4386  4459  4462      1
  4387  4460  4463      1
  4388  4460  4464      1
  4389  4460  4465      1
  4390  4465  4466      1
  4391  4465  4467      1
  4392  4465  4468      1
  4393  4466  4469      1
  4394  4466  4470      1
  4395  4466  4471      1
  4396  4471  4472      1
  4397  4471  4473      1
  4398  4471  4474      1
  4399  4472  4475      1
  4400  4472  4476      1
  4401  4472  4477      1
  4402  4477  4478      1
  4403  4477  4479      1
  4404  4477  4480      1
  4405  4478  4481      1
  4406  4478  4482      1
  4407  4478  4483      1
  4408  4483  4484      1
  4409  4483  4485      1
  4410  4483  4486      1
  4411  4484  4487      1
  4412  4484  4488      1
  4413  4484  4489      1
  4414  4489  4490      1
  4415  4489  4491      1
  4416  4489  4492      1
  4417  4490  4493      1
  4418  4490  4494      1
  4419  4490  4495      1
  4420  4495  4496      1
  4421  4495  4497      1
  4422  4495  4498      1
  4423  4496  4499      1
  4424  4496  4500      1
  4425  4496  4501      1
  4426  4501  4502      1
  4427  4501  4503      1
  4428  4501  4504      1
  4429  4502  4505      1
  4430  4502  4506      1
  4431  4502  4507      1
  4432  4507  4508      1
  4433  4507  4509      1
  4434  4507  4510      1
  4435  4508  4511      1
  4436  4508  4512      1
  4437  4508  4513      1
  4438  4513  4514      1
  4439  4513  4515      1
  4440  4513  4516      1
  4441  4514  4517      1
  4442  4514  4518      1
  4443  4514  4519      1
  4444  4519  4520      1
  4445  4519  4521      1
  4446  4519  4522      1
  4447  4520  4523      1
  4448  4520  4524      1
  4449  4520  4525      1
  4450  4525  4526      1
  4451  4525  4527      1
  4452  4525  4528      1
  4453  4526  4529      1
  4454  4526  4530      1
  4455  4526  4531      1
  4456  4531  4532      1
  4457  4531  4533      1
  4458  4531  4534      1
  4459  4532  4535      1
  4460  4532  4536      1
  4461  4532  4537      1
  4462  4537  4538      1
  4463  4537  4539      1
  4464  4537  4540      1
  4465  4538  4541      1
  4466  4538  4542      1
  4467  4538  4543      1
  4468  4543  4544      1
  4469  4543  4545      1
  4470  4543  4546      1
  4471  4544  4547      1
  4472  4544  4548      1
  4473  4544  4549      1
  4474  4549  4550      1
  4475  4549  4551      1
  4476  4549  4552      1
  4477  4550  4553      1
  4478  4550  4554      1
  4479  4550  4555      1
  4480  4555  4556      1
  4481  4555  4557      1
  4482  4555  4558      1
  4483  4556  4559      1
  4484  4556  4560      1
  4485  4556  4561      1
  4486  4561  4562      1
  4487  4561  4563      1
  4488  4561  4564      1
  4489  4562  4565      1
  4490  4562  4566      1
  4491  4562  4567      1
  4492  4567  4568      1
  4493  4567  4569      1
  4494  4567  4570      1
  4495  4568  4571      1
  4496  4568  4572      1
  4497  4568  4573      1
  4498  4573  4574      1
  4499  4573  4575      1
  4500  4573  4576      1
  4501  4574  4577      1
  4502  4574  4578      1
  4503  4574  4579      1
  4504  4579  4580      1
  4505  4579  4581      1
  4506  4579  4582      1
  4507  4580  4583      1
  4508  4580  4584      1
  4509  4580  4585      1
  4510  4585  4586      1
  4511  4585  4587      1
  4512  4585  4588      1
  4513  4586  4589      1
  4514  4586  4590      1
  4515  4586  4591      1
  4516  4591  4592      1
  4517  4591  4593      1
  4518  4591  4594      1
  4519  4592  4595      1
  4520  4592  4596      1
  4521  4592  4597      1
  4522  4597  4598      1
  4523  4597  4599      1
  4524  4597  4600      1
  4525  4598  4601      1
  4526  4598  4602      1
  4527  4598  4603      1
  4528  4603  4604      1
  4529  4603  4605      1
  4530  4603  4606      1
  4531  4604  4607      1
  4532  4604  4608      1
  4533  4604  4609      1
  4534  4609  4610      1
  4535  4609  4611      1
  4536  4609  4612      1
  4537  4610  4613      1
  4538  4610  4614      1
  4539  4610  4615      1
  4540  4615  4616      1
  4541  4615  4617      1
  4542  4615  4618      1
  4543  4616  4619      1
  4544  4616  4620      1
  4545  4616  4621      1
  4546  4621  4622      1
  4547  4621  4623      1
  4548  4621  4624      1
  4549  4622  4625      1
  4550  4622  4626      1
  4551  4622  4627      1
  4552  4627  4628      1
  4553  4627  4629      1
  4554  4627  4630      1
  4555  4628  4631      1
  4556  4628  4632      1
  4557  4628  4633      1
  4558  4633  4634      1
  4559  4633  4635      1
  4560  4633  4636      1
  4561  4634  4637      1
  4562  4634  4638      1
  4563  4634  4639      1
  4564  4639  4640      1
  4565  4639  4641      1
  4566  4639  4642      1
  4567  4640  4643      1
  4568  4640  4644      1
  4569  4640  4645      1
  4570  4645  4646      1
  4571  4645  4647      1
  4572  4645  4648      1
  4573  4646  4649      1
  4574  4646  4650      1
  4575  4646  4651      1
  4576  4651  4652      1
  4577  4651  4653      1
  4578  4651  4654      1
  4579  4652  4655      1
  4580  4652  4656      1
  4581  4652  4657      1
  4582  4657  4658      1
  4583  4657  4659      1
  4584  4657  4660      1
  4585  4658  4661      1
  4586  4658  4662      1
  4587  4658  4663      1
  4588  4663  4664      1
  4589  4663  4665      1
  4590  4663  4666      1
  4591  4664  4667      1
  4592  4664  4668      1
  4593  4664  4669      1
  4594  4669  4670      1
  4595  4669  4671      1
  4596  4669  4672      1
  4597  4670  4673      1
  4598  4670  4674      1
  4599  4670  4675      1
  4600  4675  4676      1
  4601  4675  4677      1
  4602  4675  4678      1
  4603  4676  4679      1
  4604  4676  4680      1
  4605  4676  4681      1
  4606  4681  4682      1
  4607  4681  4683      1
  4608  4681  4684      1
  4609  4682  4685      1
  4610  4682  4686      1
  4611  4682  4687      1
  4612  4687  4688      1
  4613  4687  4689      1
  4614  4687  4690      1
  4615  4688  4691      1
  4616  4688  4692      1
  4617  4688  4693      1
  4618  4693  4694      1
  4619  4693  4695      1
  4620  4693  4696      1
  4621  4694  4697      1
  4622  4694  4698      1
  4623  4699  4700      1
  4624  4699  4701      1
  4625  4699  4702      1
  4626  4700  4703      1
  4627  4700  4704      1
  4628  4700  4705      1
  4629  4705  4706      1
  4630  4705  4707      1
  4631  4705  4708      1
  4632  4706  4709      1
  4633  4706  4710      1
  4634  4706  4711      1
  4635  4711  4712      1
  4636  4711  4713      1
  4637  4711  4714      1
  4638  4712  4715      1
  4639  4712  4716      1
  4640  4712  4717      1
  4641  4717  4718      1
  4642  4717  4719      1
  4643  4717  4720      1
  4644  4718  4721      1
  4645  4718  4722      1
  4646  4718  4723      1
  4647  4723  4724      1
  4648  4723  4725      1
  4649  4723  4726      1
  4650  4724  4727      1
  4651  4724  4728      1
  4652  4724  4729      1
  4653  4729  4730      1
  4654  4729  4731      1
  4655  4729  4732      1
  4656  4730  4733      1
  4657  4730  4734      1
  4658  4730  4735      1
  4659  4735  4736      1
  4660  4735  4737      1
  4661  4735  4738      1
  4662  4736  4739      1
  4663  4736  4740      1
  4664  4736  4741      1
  4665  4741  4742      1
  4666  4741  4743      1
  4667  4741  4744      1
  4668  4742  4745      1
  4669  4742  4746      1
  4670  4742  4747      1
  4671  4747  4748      1
  4672  4747  4749      1
  4673  4747  4750      1
  4674  4748  4751      1
  4675  4748  4752      1
  4676  4748  4753      1
  4677  4753  4754      1
  4678  4753  4755      1
  4679  4753  4756      1
  4680  4754  4757      1
  4681  4754  4758      1
  4682  4754  4759      1
  4683  4759  4760      1
  4684  4759  4761      1
  4685  4759  4762      1
  4686  4760  4763      1
  4687  4760  4764      1
  4688  4760  4765      1
  4689  4765  4766      1
  4690  4765  4767      1
  4691  4765  4768      1
  4692  4766  4769      1
  4693  4766  4770      1
  4694  4771  4772      1
  4695  4771  4773      1
  4696  4771  4774      1
  4697  4772  4775      1
  4698  4772  4776      1
  4699  4772  4777      1
  4700  4777  4778      1
  4701  4777  4779      1
  4702  4777  4780      1
  4703  4778  4781      1
  4704  4778  4782      1
  4705  4778  4783      1
  4706  4783  4784      1
  4707  4783  4785      1
  4708  4783  4786      1
  4709  4784  4787      1
  4710  4784  4788      1
  4711  4784  4789      1
  4712  4789  4790      1
  4713  4789  4791      1
  4714  4789  4792      1
  4715  4790  4793      1
  4716  4790  4794      1
  4717  4790  4795      1
  4718  4795  4796      1
  4719  4795  4797      1
  4720  4795  4798      1
  4721  4796  4799      1
  4722  4796  4800      1
  4723  4796  4801      1
  4724  4801  4802      1
  4725  4801  4803      1
  4726  4801  4804      1
  4727  4802  4805      1
  4728  4802  4806      1
  4729  4802  4807      1
  4730  4807  4808      1
  4731  4807  4809      1
  4732  4807  4810      1
  4733  4808  4811      1
  4734  4808  4812      1
  4735  4808  4813      1
  4736  4813  4814      1
  4737  4813  4815      1
  4738  4813  4816      1
  4739  4814  4817      1
  4740  4814  4818      1
  4741  4814  4819      1
  4742  4819  4820      1
  4743  4819  4821      1
  4744  4819  4822      1
  4745  4820  4823      1
  4746  4820  4824      1
  4747  4820  4825      1
  4748  4825  4826      1
  4749  4825  4827      1
  4750  4825  4828      1
  4751  4826  4829      1
  4752  4826  4830      1
  4753  4826  4831      1
  4754  4831  4832      1
  4755  4831  4833      1
  4756  4831  4834      1
  4757  4832  4835      1
  4758  4832  4836      1
  4759  4832  4837      1
  4760  4837  4838      1
  4761  4837  4839      1
  4762  4837  4840      1
  4763  4838  4841      1
  4764  4838  4842      1
  4765  4838  4843      1
  4766  4843  4844      1
  4767  4843  4845      1
  4768  4843  4846      1
  4769  4844  4847      1
  4770  4844  4848      1
  4771  4844  4849      1
  4772  4849  4850      1
  4773  4849  4851      1
  4774  4849  4852      1
  4775  4850  4853      1
  4776  4850  4854      1
  4777  4850  4855      1
  4778  4855  4856      1
  4779  4855  4857      1
  4780  4855  4858      1
  4781  4856  4859      1
  4782  4856  4860      1
  4783  4856  4861      1
  4784  4861  4862      1
  4785  4861  4863      1
  4786  4861  4864      1
  4787  4862  4865      1
  4788  4862  4866      1
  4789  4862  4867      1
  4790  4867  4868      1
  4791  4867  4869      1
  4792  4867  4870      1
  4793  4868  4871      1
  4794  4868  4872      1
  4795  4868  4873      1
  4796  4873  4874      1
  4797  4873  4875      1
  4798  4873  4876      1
  4799  4874  4877      1
  4800  4874  4878      1
  4801  4874  4879      1
  4802  4879  4880      1
  4803  4879  4881      1
  4804  4879  4882      1
  4805  4880  4883      1
  4806  4880  4884      1
  4807  4880  4885      1
  4808  4885  4886      1
  4809  4885  4887      1
  4810  4885  4888      1
  4811  4886  4889      1
  4812  4886  4890      1
  4813  4886  4891      1
  4814  4891  4892      1
  4815  4891  4893      1
  4816  4891  4894      1
  4817  4892  4895      1
  4818  4892  4896      1
  4819  4892  4897      1
  4820  4897  4898      1
  4821  4897  4899      1
  4822  4897  4900      1
  4823  4898  4901      1
  4824  4898  4902      1
  4825  4898  4903      1
  4826  4903  4904      1
  4827  4903  4905      1
  4828  4903  4906      1
  4829  4904  4907      1
  4830  4904  4908      1
  4831  4904  4909      1
  4832  4909  4910      1
  4833  4909  4911      1
  4834  4909  4912      1
  4835  4910  4913      1
  4836  4910  4914      1
  4837  4910  4915      1
  4838  4915  4916      1
  4839  4915  4917      1
  4840  4915  4918      1
  4841  4916  4919      1
  4842  4916  4920      1
  4843  4921  4922      1
  4844  4921  4923      1
  4845  4921  4924      1
  4846  4922  4925      1
  4847  4922  4926      1
  4848  4922  4927      1
  4849  4927  4928      1
  4850  4927  4929      1
  4851  4927  4930      1
  4852  4928  4931      1
  4853  4928  4932      1
  4854  4928  4933      1
  4855  4933  4934      1
  4856  4933  4935      1
  4857  4933  4936      1
  4858  4934  4937      1
  4859  4934  4938      1
  4860  4934  4939      1
  4861  4939  4940      1
  4862  4939  4941      1
  4863  4939  4942      1
  4864  4940  4943      1
  4865  4940  4944      1
  4866  4940  4945      1
  4867  4945  4946      1
  4868  4945  4947      1
  4869  4945  4948      1
  4870  4946  4949      1
  4871  4946  4950      1
  4872  4946  4951      1
  4873  4951  4952      1
  4874  4951  4953      1
  4875  4951  4954      1
  4876  4952  4955      1
  4877  4952  4956      1
  4878  4952  4957      1
  4879  4957  4958      1
  4880  4957  4959      1
  4881  4957  4960      1
  4882  4958  4961      1
  4883  4958  4962      1
  4884  4958  4963      1
  4885  4963  4964      1
  4886  4963  4965      1
  4887  4963  4966      1
  4888  4964  4967      1
  4889  4964  4968      1
  4890  4964  4969      1
  4891  4969  4970      1
  4892  4969  4971      1
  4893  4969  4972      1
  4894  4970  4973      1
  4895  4970  4974      1
  4896  4970  4975      1
  4897  4975  4976      1
  4898  4975  4977      1
  4899  4975  4978      1
  4900  4976  4979      1
  4901  4976  4980      1
  4902  4976  4981      1
  4903  4981  4982      1
  4904  4981  4983      1
  4905  4981  4984      1
  4906  4982  4985      1
  4907  4982  4986      1
  4908  4982  4987      1
  4909  4987  4988      1
  4910  4987  4989      1
  4911  4987  4990      1
  4912  4988  4991      1
  4913  4988  4992      1
  4914  4988  4993      1
  4915  4993  4994      1
  4916  4993  4995      1
  4917  4993  4996      1
  4918  4994  4997      1
  4919  4994  4998      1
  4920  4994  4999      1
  4921  4999  5000      1
  4922  4999  5001      1
  4923  4999  5002      1
  4924  5000  5003      1
  4925  5000  5004      1
  4926  5005  5006      1
  4927  5005  5007      1
  4928  5005  5008      1
  4929  5006  5009      1
  4930  5006  5010      1
  4931  5006  5011      1
  4932  5011  5012      1
  4933  5011  5013      1
  4934  5011  5014      1
  4935  5012  5015      1
  4936  5012  5016      1
  4937  5012  5017      1
  4938  5017  5018      1
  4939  5017  5019      1
  4940  5017  5020      1
  4941  5018  5021      1
  4942  5018  5022      1
  4943  5018  5023      1
  4944  5023  5024      1
  4945  5023  5025      1
  4946  5023  5026      1
  4947  5024  5027      1
  4948  5024  5028      1
  4949  5024  5029      1
  4950  5029  5030      1
  4951  5029  5031      1
  4952  5029  5032      1
  4953  5030  5033      1
  4954  5030  5034      1
  4955  5030  5035      1
  4956  5035  5036      1
  4957  5035  5037      1
  4958  5035  5038      1
  4959  5036  5039      1
  4960  5036  5040      1
  4961  5036  5041      1
  4962  5041  5042      1
  4963  5041  5043      1
  4964  5041  5044      1
  4965  5042  5045      1
  4966  5042  5046      1
  4967  5042  5047      1
  4968  5047  5048      1
  4969  5047  5049      1
  4970  5047  5050      1
  4971  5048  5051      1
  4972  5048  5052      1
  4973  5048  5053      1
  4974  5053  5054      1
  4975  5053  5055      1
  4976  5053  5056      1
  4977  5054  5057      1
  4978  5054  5058      1
  4979  5054  5059      1
  4980  5059  5060      1
  4981  5059  5061      1
  4982  5059  5062      1
  4983  5060  5063      1
  4984  5060  5064      1
  4985  5060  5065      1
  4986  5065  5066      1
  4987  5065  5067      1
  4988  5065  5068      1
  4989  5066  5069      1
  4990  5066  5070      1
  4991  5066  5071      1
  4992  5071  5072      1
  4993  5071  5073      1
  4994  5071  5074      1
  4995  5072  5075      1
  4996  5072  5076      1
  4997  5072  5077      1
  4998  5077  5078      1
  4999  5077  5079      1
  5000  5077  5080      1
  5001  5078  5081      1
  5002  5078  5082      1
  5003  5078  5083      1
  5004  5083  5084      1
  5005  5083  5085      1
  5006  5083  5086      1
  5007  5084  5087      1
  5008  5084  5088      1
  5009  5084  5089      1
  5010  5089  5090      1
  5011  5089  5091      1
  5012  5089  5092      1
  5013  5090  5093      1
  5014  5090  5094      1
  5015  5090  5095      1
  5016  5095  5096      1
  5017  5095  5097      1
  5018  5095  5098      1
  5019  5096  5099      1
  5020  5096  5100      1
  5021  5096  5101      1
  5022  5101  5102      1
  5023  5101  5103      1
  5024  5101  5104      1
  5025  5102  5105      1
  5026  5102  5106      1
  5027  5102  5107      1
  5028  5107  5108      1
  5029  5107  5109      1
  5030  5107  5110      1
  5031  5108  5111      1
  5032  5108  5112      1
  5033  5108  5113      1
  5034  5113  5114      1
  5035  5113  5115      1
  5036  5113  5116      1
  5037  5114  5117      1
  5038  5114  5118      1
  5039  5114  5119      1
  5040  5119  5120      1
  5041  5119  5121      1
  5042  5119  5122      1
  5043  5120  5123      1
  5044  5120  5124      1
  5045  5120  5125      1
  5046  5125  5126      1
  5047  5125  5127      1
  5048  5125  5128      1
  5049  5126  5129      1
  5050  5126  5130      1
  5051  5126  5131      1
  5052  5131  5132      1
  5053  5131  5133      1
  5054  5131  5134      1
  5055  5132  5135      1
  5056  5132  5136      1
  5057  5132  5137      1
  5058  5137  5138      1
  5059  5137  5139      1
  5060  5137  5140      1
  5061  5138  5141      1
  5062  5138  5142      1
  5063  5138  5143      1
  5064  5143  5144      1
  5065  5143  5145      1
  5066  5143  5146      1
  5067  5144  5147      1
  5068  5144  5148      1
  5069  5144  5149      1
  5070  5149  5150      1
  5071  5149  5151      1
  5072  5149  5152      1
  5073  5150  5153      1
  5074  5150  5154      1
  5075  5150  5155      1
  5076  5155  5156      1
  5077  5155  5157      1
  5078  5155  5158      1
  5079  5156  5159      1
  5080  5156  5160      1
  5081  5161  5162      1
  5082  5161  5163      1
  5083  5161  5164      1
  5084  5162  5165      1
  5085  5162  5166      1
  5086  5162  5167      1
  5087  5167  5168      1
  5088  5167  5169      1
  5089  5167  5170      1
  5090  5168  5171      1
  5091  5168  5172      1
  5092  5168  5173      1
  5093  5173  5174      1
  5094  5173  5175      1
  5095  5173  5176      1
  5096  5174  5177      1
  5097  5174  5178      1
  5098  5174  5179      1
  5099  5179  5180      1
  5100  5179  5181      1
  5101  5179  5182      1
  5102  5180  5183      1
  5103  5180  5184      1
  5104  5180  5185      1
  5105  5185  5186      1
  5106  5185  5187      1
  5107  5185  5188      1
  5108  5186  5189      1
  5109  5186  5190      1
  5110  5186  5191      1
  5111  5191  5192      1
  5112  5191  5193      1
  5113  5191  5194      1
  5114  5192  5195      1
  5115  5192  5196      1
  5116  5192  5197      1
  5117  5197  5198      1
  5118  5197  5199      1
  5119  5197  5200      1
  5120  5198  5201      1
  5121  5198  5202      1
  5122  5198  5203      1
  5123  5203  5204      1
  5124  5203  5205      1
  5125  5203  5206      1
  5126  5204  5207      1
  5127  5204  5208      1
  5128  5204  5209      1
  5129  5209  5210      1
  5130  5209  5211      1
  5131  5209  5212      1
  5132  5210  5213      1
  5133  5210  5214      1
  5134  5210  5215      1
  5135  5215  5216      1
  5136  5215  5217      1
  5137  5215  5218      1
  5138  5216  5219      1
  5139  5216  5220      1
  5140  5216  5221      1
  5141  5221  5222      1
  5142  5221  5223      1
  5143  5221  5224      1
  5144  5222  5225      1
  5145  5222  5226      1
  5146  5222  5227      1
  5147  5227  5228      1
  5148  5227  5229      1
  5149  5227  5230      1
  5150  5228  5231      1
  5151  5228  5232      1
  5152  5228  5233      1
  5153  5233  5234      1
  5154  5233  5235      1
  5155  5233  5236      1
  5156  5234  5237      1
  5157  5234  5238      1
  5158  5234  5239      1
  5159  5239  5240      1
  5160  5239  5241      1
  5161  5239  5242      1
  5162  5240  5243      1
  5163  5240  5244      1
  5164  5240  5245      1
  5165  5245  5246      1
  5166  5245  5247      1
  5167  5245  5248      1
  5168  5246  5249      1
  5169  5246  5250      1
  5170  5246  5251      1
  5171  5251  5252      1
  5172  5251  5253      1
  5173  5251  5254      1
  5174  5252  5255      1
  5175  5252  5256      1
  5176  5257  5258      1
  5177  5257  5259      1
  5178  5257  5260      1
  5179  5258  5261      1
  5180  5258  5262      1
  5181  5258  5263      1
  5182  5263  5264      1
  5183  5263  5265      1
  5184  5263  5266      1
  5185  5264  5267      1
  5186  5264  5268      1
  5187  5264  5269      1
  5188  5269  5270      1
  5189  5269  5271      1
  5190  5269  5272      1
  5191  5270  5273      1
  5192  5270  5274      1
  5193  5270  5275      1
  5194  5275  5276      1
  5195  5275  5277      1
  5196  5275  5278      1
  5197  5276  5279      1
  5198  5276  5280      1
  5199  5276  5281      1
  5200  5281  5282      1
  5201  5281  5283      1
  5202  5281  5284      1
  5203  5282  5285      1
  5204  5282  5286      1
  5205  5282  5287      1
  5206  5287  5288      1
  5207  5287  5289      1
  5208  5287  5290      1
  5209  5288  5291      1
  5210  5288  5292      1
  5211  5288  5293      1
  5212  5293  5294      1
  5213  5293  5295      1
  5214  5293  5296      1
  5215  5294  5297      1
  5216  5294  5298      1
  5217  5294  5299      1
  5218  5299  5300      1
  5219  5299  5301      1
  5220  5299  5302      1
  5221  5300  5303      1
  5222  5300  5304      1
  5223  5300  5305      1
  5224  5305  5306      1
  5225  5305  5307      1
  5226  5305  5308      1
  5227  5306  5309      1
  5228  5306  5310      1
  5229  5306  5311      1
  5230  5311  5312      1
  5231  5311  5313      1
  5232  5311  5314      1
  5233  5312  5315      1
  5234  5312  5316      1
  5235  5312  5317      1
  5236  5317  5318      1
  5237  5317  5319      1
  5238  5317  5320      1
  5239  5318  5321      1
  5240  5318  5322      1
  5241  5318  5323      1
  5242  5323  5324      1
  5243  5323  5325      1
  5244  5323  5326      1
  5245  5324  5327      1
  5246  5324  5328      1
  5247  5324  5329      1
  5248  5329  5330      1
  5249  5329  5331      1
  5250  5329  5332      1
  5251  5330  5333      1
  5252  5330  5334      1
  5253  5330  5335      1
  5254  5335  5336      1
  5255  5335  5337      1
  5256  5335  5338      1
  5257  5336  5339      1
  5258  5336  5340      1
  5259  5336  5341      1
  5260  5341  5342      1
  5261  5341  5343      1
  5262  5341  5344      1
  5263  5342  5345      1
  5264  5342  5346      1
  5265  5342  5347      1
  5266  5347  5348      1
  5267  5347  5349      1
  5268  5347  5350      1
  5269  5348  5351      1
  5270  5348  5352      1
  5271  5348  5353      1
  5272  5353  5354      1
  5273  5353  5355      1
  5274  5353  5356      1
  5275  5354  5357      1
  5276  5354  5358      1
  5277  5354  5359      1
  5278  5359  5360      1
  5279  5359  5361      1
  5280  5359  5362      1
  5281  5360  5363      1
  5282  5360  5364      1
  5283  5360  5365      1
  5284  5365  5366      1
  5285  5365  5367      1
  5286  5365  5368      1
  5287  5366  5369      1
  5288  5366  5370      1
  5289  5366  5371      1
  5290  5371  5372      1
  5291  5371  5373      1
  5292  5371  5374      1
  5293  5372  5375      1
  5294  5372  5376      1
  5295  5372  5377      1
  5296  5377  5378      1
  5297  5377  5379      1
  5298  5377  5380      1
  5299  5378  5381      1
  5300  5378  5382      1
  5301  5383  5384      1
  5302  5383  5385      1
  5303  5383  5386      1
  5304  5384  5387      1
  5305  5384  5388      1
  5306  5384  5389      1
  5307  5389  5390      1
  5308  5389  5391      1
  5309  5389  5392      1
  5310  5390  5393      1
  5311  5390  5394      1
  5312  5390  5395      1
  5313  5395  5396      1
  5314  5395  5397      1
  5315  5395  5398      1
  5316  5396  5399      1
  5317  5396  5400      1
  5318  5396  5401      1
  5319  5401  5402      1
  5320  5401  5403      1
  5321  5401  5404      1
  5322  5402  5405      1
  5323  5402  5406      1
  5324  5402  5407      1
  5325  5407  5408      1
  5326  5407  5409      1
  5327  5407  5410      1
  5328  5408  5411      1
  5329  5408  5412      1
  5330  5408  5413      1
  5331  5413  5414      1
  5332  5413  5415      1
  5333  5413  5416      1
  5334  5414  5417      1
  5335  5414  5418      1
  5336  5414  5419      1
  5337  5419  5420      1
  5338  5419  5421      1
  5339  5419  5422      1
  5340  5420  5423      1
  5341  5420  5424      1
  5342  5420  5425      1
  5343  5425  5426      1
  5344  5425  5427      1
  5345  5425  5428      1
  5346  5426  5429      1
  5347  5426  5430      1
  5348  5426  5431      1
  5349  5431  5432      1
  5350  5431  5433      1
  5351  5431  5434      1
  5352  5432  5435      1
  5353  5432  5436      1
  5354  5432  5437      1
  5355  5437  5438      1
  5356  5437  5439      1
  5357  5437  5440      1
  5358  5438  5441      1
  5359  5438  5442      1
  5360  5438  5443      1
  5361  5443  5444      1
  5362  5443  5445      1
  5363  5443  5446      1
  5364  5444  5447      1
  5365  5444  5448      1
  5366  5444  5449      1
  5367  5449  5450      1
  5368  5449  5451      1
  5369  5449  5452      1
  5370  5450  5453      1
  5371  5450  5454      1
  5372  5455  5456      1
  5373  5455  5457      1
  5374  5455  5458      1
  5375  5456  5459      1
  5376  5456  5460      1
  5377  5456  5461      1
  5378  5461  5462      1
  5379  5461  5463      1
  5380  5461  5464      1
  5381  5462  5465      1
  5382  5462  5466      1
  5383  5462  5467      1
  5384  5467  5468      1
  5385  5467  5469      1
  5386  5467  5470      1
  5387  5468  5471      1
  5388  5468  5472      1
  5389  5468  5473      1
  5390  5473  5474      1
  5391  5473  5475      1
  5392  5473  5476      1
  5393  5474  5477      1
  5394  5474  5478      1
  5395  5474  5479      1
  5396  5479  5480      1
  5397  5479  5481      1
  5398  5479  5482      1
  5399  5480  5483      1
  5400  5480  5484      1
  5401  5480  5485      1
  5402  5485  5486      1
  5403  5485  5487      1
  5404  5485  5488      1
  5405  5486  5489      1
  5406  5486  5490      1
  5407  5486  5491      1
  5408  5491  5492      1
  5409  5491  5493      1
  5410  5491  5494      1
  5411  5492  5495      1
  5412  5492  5496      1
  5413  5492  5497      1
  5414  5497  5498      1
  5415  5497  5499      1
  5416  5497  5500      1
  5417  5498  5501      1
  5418  5498  5502      1
  5419  5498  5503      1
  5420  5503  5504      1
  5421  5503  5505      1
  5422  5503  5506      1
  5423  5504  5507      1
  5424  5504  5508      1
  5425  5504  5509      1
  5426  5509  5510      1
  5427  5509  5511      1
  5428  5509  5512      1
  5429  5510  5513      1
  5430  5510  5514      1
  5431  5510  5515      1
  5432  5515  5516      1
  5433  5515  5517      1
  5434  5515  5518      1
  5435  5516  5519      1
  5436  5516  5520      1
  5437  5516  5521      1
  5438  5521  5522      1
  5439  5521  5523      1
  5440  5521  5524      1
  5441  5522  5525      1
  5442  5522  5526      1
  5443  5522  5527      1
  5444  5527  5528      1
  5445  5527  5529      1
  5446  5527  5530      1
  5447  5528  5531      1
  5448  5528  5532      1
  5449  5528  5533      1
  5450  5533  5534      1
  5451  5533  5535      1
  5452  5533  5536      1
  5453  5534  5537      1
  5454  5534  5538      1
  5455  5534  5539      1
  5456  5539  5540      1
  5457  5539  5541      1
  5458  5539  5542      1
  5459  5540  5543      1
  5460  5540  5544      1
  5461  5545  5546      1
  5462  5545  5547      1
  5463  5545  5548      1
  5464  5546  5549      1
  5465  5546  5550      1
  5466  5546  5551      1
  5467  5551  5552      1
  5468  5551  5553      1
  5469  5551  5554      1
  5470  5552  5555      1
  5471  5552  5556      1
  5472  5552  5557      1
  5473  5557  5558      1
  5474  5557  5559      1
  5475  5557  5560      1
  5476  5558  5561      1
  5477  5558  5562      1
  5478  5558  5563      1
  5479  5563  5564      1
  5480  5563  5565      1
  5481  5563  5566      1
  5482  5564  5567      1
  5483  5564  5568      1
  5484  5564  5569      1
  5485  5569  5570      1
  5486  5569  5571      1
  5487  5569  5572      1
  5488  5570  5573      1
  5489  5570  5574      1
  5490  5570  5575      1
  5491  5575  5576      1
  5492  5575  5577      1
  5493  5575  5578      1
  5494  5576  5579      1
  5495  5576  5580      1
  5496  5576  5581      1
  5497  5581  5582      1
  5498  5581  5583      1
  5499  5581  5584      1
  5500  5582  5585      1
  5501  5582  5586      1
  5502  5582  5587      1
  5503  5587  5588      1
  5504  5587  5589      1
  5505  5587  5590      1
  5506  5588  5591      1
  5507  5588  5592      1
  5508  5588  5593      1
  5509  5593  5594      1
  5510  5593  5595      1
  5511  5593  5596      1
  5512  5594  5597      1
  5513  5594  5598      1
  5514  5594  5599      1
  5515  5599  5600      1
  5516  5599  5601      1
  5517  5599  5602      1
  5518  5600  5603      1
  5519  5600  5604      1
  5520  5600  5605      1
  5521  5605  5606      1
  5522  5605  5607      1
  5523  5605  5608      1
  5524  5606  5609      1
  5525  5606  5610      1
  5526  5606  5611      1
  5527  5611  5612      1
  5528  5611  5613      1
  5529  5611  5614      1
  5530  5612  5615      1
  5531  5612  5616      1
  5532  5612  5617      1
  5533  5617  5618      1
  5534  5617  5619      1
  5535  5617  5620      1
  5536  5618  5621      1
  5537  5618  5622      1
  5538  5618  5623      1
  5539  5623  5624      1
  5540  5623  5625      1
  5541  5623  5626      1
  5542  5624  5627      1
  5543  5624  5628      1
  5544  5624  5629      1
  5545  5629  5630      1
  5546  5629  5631      1
  5547  5629  5632      1
  5548  5630  5633      1
  5549  5630  5634      1
  5550  5630  5635      1
  5551  5635  5636      1
  5552  5635  5637      1
  5553  5635  5638      1
  5554  5636  5639      1
  5555  5636  5640      1
  5556  5636  5641      1
  5557  5641  5642      1
  5558  5641  5643      1
  5559  5641  5644      1
  5560  5642  5645      1
  5561  5642  5646      1
  5562  5642  5647      1
  5563  5647  5648      1
  5564  5647  5649      1
  5565  5647  5650      1
  5566  5648  5651      1
  5567  5648  5652      1
  5568  5648  5653      1
  5569  5653  5654      1
  5570  5653  5655      1
  5571  5653  5656      1
  5572  5654  5657      1
  5573  5654  5658      1
  5574  5654  5659      1
  5575  5659  5660      1
  5576  5659  5661      1
  5577  5659  5662      1
  5578  5660  5663      1
  5579  5660  5664      1
  5580  5660  5665      1
  5581  5665  5666      1
  5582  5665  5667      1
  5583  5665  5668      1
  5584  5666  5669      1
  5585  5666  5670      1
  5586  5666  5671      1
  5587  5671  5672      1
  5588  5671  5673      1
  5589  5671  5674      1
  5590  5672  5675      1
  5591  5672  5676      1
  5592  5672  5677      1
  5593  5677  5678      1
  5594  5677  5679      1
  5595  5677  5680      1
  5596  5678  5681      1
  5597  5678  5682      1
  5598  5678  5683      1
  5599  5683  5684      1
  5600  5683  5685      1
  5601  5683  5686      1
  5602  5684  5687      1
  5603  5684  5688      1
  5604  5684  5689      1
  5605  5689  5690      1
  5606  5689  5691      1
  5607  5689  5692      1
  5608  5690  5693      1
  5609  5690  5694      1
  5610  5690  5695      1
  5611  5695  5696      1
  5612  5695  5697      1
  5613  5695  5698      1
  5614  5696  5699      1
  5615  5696  5700      1
  5616  5696  5701      1
  5617  5701  5702      1
  5618  5701  5703      1
  5619  5701  5704      1
  5620  5702  5705      1
  5621  5702  5706      1
  5622  5702  5707      1
  5623  5707  5708      1
  5624  5707  5709      1
  5625  5707  5710      1
  5626  5708  5711      1
  5627  5708  5712      1
  5628  5708  5713      1
  5629  5713  5714      1
  5630  5713  5715      1
  5631  5713  5716      1
  5632  5714  5717      1
  5633  5714  5718      1
  5634  5714  5719      1
  5635  5719  5720      1
  5636  5719  5721      1
  5637  5719  5722      1
  5638  5720  5723      1
  5639  5720  5724      1
  5640  5720  5725      1
  5641  5725  5726      1
  5642  5725  5727      1
  5643  5725  5728      1
  5644  5726  5729      1
  5645  5726  5730      1
  5646  5726  5731      1
  5647  5731  5732      1
  5648  5731  5733      1
  5649  5731  5734      1
  5650  5732  5735      1
  5651  5732  5736      1
  5652  5732  5737      1
  5653  5737  5738      1
  5654  5737  5739      1
  5655  5737  5740      1
  5656  5738  5741      1
  5657  5738  5742      1
  5658  5738  5743      1
  5659  5743  5744      1
  5660  5743  5745      1
  5661  5743  5746      1
  5662  5744  5747      1
  5663  5744  5748      1
  5664  5744  5749      1
  5665  5749  5750      1
  5666  5749  5751      1
  5667  5749  5752      1
  5668  5750  5753      1
  5669  5750  5754      1
  5670  5750  5755      1
  5671  5755  5756      1
  5672  5755  5757      1
  5673  5755  5758      1
  5674  5756  5759      1
  5675  5756  5760      1
  5676  5756  5761      1
  5677  5761  5762      1
  5678  5761  5763      1
  5679  5761  5764      1
  5680  5762  5765      1
  5681  5762  5766      1
  5682  5762  5767      1
  5683  5767  5768      1
  5684  5767  5769      1
  5685  5767  5770      1
  5686  5768  5771      1
  5687  5768  5772      1
  5688  5768  5773      1
  5689  5773  5774      1
  5690  5773  5775      1
  5691  5773  5776      1
  5692  5774  5777      1
  5693  5774  5778      1
  5694  5774  5779      1
  5695  5779  5780      1
  5696  5779  5781      1
  5697  5779  5782      1
  5698  5780  5783      1
  5699  5780  5784      1
  5700  5780  5785      1
  5701  5785  5786      1
  5702  5785  5787      1
  5703  5785  5788      1
  5704  5786  5789      1
  5705  5786  5790      1
  5706  5786  5791      1
  5707  5791  5792      1
  5708  5791  5793      1
  5709  5791  5794      1
  5710  5792  5795      1
  5711  5792  5796      1
  5712  5797  5798      1
  5713  5797  5799      1
  5714  5797  5800      1
  5715  5798  5801      1
  5716  5798  5802      1
  5717  5798  5803      1
  5718  5803  5804      1
  5719  5803  5805      1
  5720  5803  5806      1
  5721  5804  5807      1
  5722  5804  5808      1
  5723  5804  5809      1
  5724  5809  5810      1
  5725  5809  5811      1
  5726  5809  5812      1
  5727  5810  5813      1
  5728  5810  5814      1
  5729  5810  5815      1
  5730  5815  5816      1
  5731  5815  5817      1
  5732  5815  5818      1
  5733  5816  5819      1
  5734  5816  5820      1
  5735  5816  5821      1
  5736  5821  5822      1
  5737  5821  5823      1
  5738  5821  5824      1
  5739  5822  5825      1
  5740  5822  5826      1
  5741  5822  5827      1
  5742  5827  5828      1
  5743  5827  5829      1
  5744  5827  5830      1
  5745  5828  5831      1
  5746  5828  5832      1
  5747  5828  5833      1
  5748  5833  5834      1
  5749  5833  5835      1
  5750  5833  5836      1
  5751  5834  5837      1
  5752  5834  5838      1
  5753  5834  5839      1
  5754  5839  5840      1
  5755  5839  5841      1
  5756  5839  5842      1
  5757  5840  5843      1
  5758  5840  5844      1
  5759  5840  5845      1
  5760  5845  5846      1
  5761  5845  5847      1
  5762  5845  5848      1
  5763  5846  5849      1
  5764  5846  5850      1
  5765  5846  5851      1
  5766  5851  5852      1
  5767  5851  5853      1
  5768  5851  5854      1
  5769  5852  5855      1
  5770  5852  5856      1
  5771  5852  5857      1
  5772  5857  5858      1
  5773  5857  5859      1
  5774  5857  5860      1
  5775  5858  5861      1
  5776  5858  5862      1
  5777  5858  5863      1
  5778  5863  5864      1
  5779  5863  5865      1
  5780  5863  5866      1
  5781  5864  5867      1
  5782  5864  5868      1
  5783  5864  5869      1
  5784  5869  5870      1
  5785  5869  5871      1
  5786  5869  5872      1
  5787  5870  5873      1
  5788  5870  5874      1
  5789  5875  5876      1
  5790  5875  5877      1
  5791  5875  5878      1
  5792  5876  5879      1
  5793  5876  5880      1
  5794  5876  5881      1
  5795  5881  5882      1
  5796  5881  5883      1
  5797  5881  5884      1
  5798  5882  5885      1
  5799  5882  5886      1
  5800  5882  5887      1
  5801  5887  5888      1
  5802  5887  5889      1
  5803  5887  5890      1
  5804  5888  5891      1
  5805  5888  5892      1
  5806  5888  5893      1
  5807  5893  5894      1
  5808  5893  5895      1
  5809  5893  5896      1
  5810  5894  5897      1
  5811  5894  5898      1
  5812  5894  5899      1
  5813  5899  5900      1
  5814  5899  5901      1
  5815  5899  5902      1
  5816  5900  5903      1
  5817  5900  5904      1
  5818  5900  5905      1
  5819  5905  5906      1
  5820  5905  5907      1
  5821  5905  5908      1
  5822  5906  5909      1
  5823  5906  5910      1
  5824  5906  5911      1
  5825  5911  5912      1
  5826  5911  5913      1
  5827  5911  5914      1
  5828  5912  5915      1
  5829  5912  5916      1
  5830  5912  5917      1
  5831  5917  5918      1
  5832  5917  5919      1
  5833  5917  5920      1
  5834  5918  5921      1
  5835  5918  5922      1
  5836  5918  5923      1
  5837  5923  5924      1
  5838  5923  5925      1
  5839  5923  5926      1
  5840  5924  5927      1
  5841  5924  5928      1
  5842  5924  5929      1
  5843  5929  5930      1
  5844  5929  5931      1
  5845  5929  5932      1
  5846  5930  5933      1
  5847  5930  5934      1
  5848  5930  5935      1
  5849  5935  5936      1
  5850  5935  5937      1
  5851  5935  5938      1
  5852  5936  5939      1
  5853  5936  5940      1
  5854  5936  5941      1
  5855  5941  5942      1
  5856  5941  5943      1
  5857  5941  5944      1
  5858  5942  5945      1
  5859  5942  5946      1
  5860  5942  5947      1
  5861  5947  5948      1
  5862  5947  5949      1
  5863  5947  5950      1
  5864  5948  5951      1
  5865  5948  5952      1
  5866  5948  5953      1
  5867  5953  5954      1
  5868  5953  5955      1
  5869  5953  5956      1
  5870  5954  5957      1
  5871  5954  5958      1
  5872  5954  5959      1
  5873  5959  5960      1
  5874  5959  5961      1
  5875  5959  5962      1
  5876  5960  5963      1
  5877  5960  5964      1
  5878  5960  5965      1
  5879  5965  5966      1
  5880  5965  5967      1
  5881  5965  5968      1
  5882  5966  5969      1
  5883  5966  5970      1
  5884  5966  5971      1
  5885  5971  5972      1
  5886  5971  5973      1
  5887  5971  5974      1
  5888  5972  5975      1
  5889  5972  5976      1
  5890  5972  5977      1
  5891  5977  5978      1
  5892  5977  5979      1
  5893  5977  5980      1
  5894  5978  5981      1
  5895  5978  5982      1
  5896  5978  5983      1
  5897  5983  5984      1
  5898  5983  5985      1
  5899  5983  5986      1
  5900  5984  5987      1
  5901  5984  5988      1
  5902  5984  5989      1
  5903  5989  5990      1
  5904  5989  5991      1
  5905  5989  5992      1
  5906  5990  5993      1
  5907  5990  5994      1
  5908  5990  5995      1
  5909  5995  5996      1
  5910  5995  5997      1
  5911  5995  5998      1
  5912  5996  5999      1
  5913  5996  6000      1
  5914  5996  6001      1
  5915  6001  6002      1
  5916  6001  6003      1
  5917  6001  6004      1
  5918  6002  6005      1
  5919  6002  6006      1
  5920  6002  6007      1
  5921  6007  6008      1
  5922  6007  6009      1
  5923  6007  6010      1
  5924  6008  6011      1
  5925  6008  6012      1
  5926  6008  6013      1
  5927  6013  6014      1
  5928  6013  6015      1
  5929  6013  6016      1
  5930  6014  6017      1
  5931  6014  6018      1
  5932  6014  6019      1
  5933  6019  6020      1
  5934  6019  6021      1
  5935  6019  6022      1
  5936  6020  6023      1
  5937  6020  6024      1
  5938  6020  6025      1
  5939  6025  6026      1
  5940  6025  6027      1
  5941  6025  6028      1
  5942  6026  6029      1
  5943  6026  6030      1
  5944  6026  6031      1
  5945  6031  6032      1
  5946  6031  6033      1
  5947  6031  6034      1
  5948  6032  6035      1
  5949  6032  6036      1
  5950  6032  6037      1
  5951  6037  6038      1
  5952  6037  6039      1
  5953  6037  6040      1
  5954  6038  6041      1
  5955  6038  6042      1
  5956  6038  6043      1
  5957  6043  6044      1
  5958  6043  6045      1
  5959  6043  6046      1
  5960  6044  6047      1
  5961  6044  6048      1
  5962  6044  6049      1
  5963  6049  6050      1
  5964  6049  6051      1
  5965  6049  6052      1
  5966  6050  6053      1
  5967  6050  6054      1
  5968  6050  6055      1
  5969  6055  6056      1
  5970  6055  6057      1
  5971  6055  6058      1
  5972  6056  6059      1
  5973  6056  6060      1
  5974  6056  6061      1
  5975  6061  6062      1
  5976  6061  6063      1
  5977  6061  6064      1
  5978  6062  6065      1
  5979  6062  6066      1
  5980  6062  6067      1
  5981  6067  6068      1
  5982  6067  6069      1
  5983  6067  6070      1
  5984  6068  6071      1
  5985  6068  6072      1
  5986  6068  6073      1
  5987  6073  6074      1
  5988  6073  6075      1
  5989  6073  6076      1
  5990  6074  6077      1
  5991  6074  6078      1
  5992  6074  6079      1
  5993  6079  6080      1
  5994  6079  6081      1
  5995  6079  6082      1
  5996  6080  6083      1
  5997  6080  6084      1
  5998  6080  6085      1
  5999  6085  6086      1
  6000  6085  6087      1
  6001  6085  6088      1
  6002  6086  6089      1
  6003  6086  6090      1
  6004  6091  6092      1
  6005  6091  6093      1
  6006  6091  6094      1
  6007  6092  6095      1
  6008  6092  6096      1
  6009  6092  6097      1
  6010  6097  6098      1
  6011  6097  6099      1
  6012  6097  6100      1
  6013  6098  6101      1
  6014  6098  6102      1
  6015  6098  6103      1
  6016  6103  6104      1
  6017  6103  6105      1
  6018  6103  6106      1
  6019  6104  6107      1
  6020  6104  6108      1
  6021  6104  6109      1
  6022  6109  6110      1
  6023  6109  6111      1
  6024  6109  6112      1
  6025  6110  6113      1
  6026  6110  6114      1
  6027  6110  6115      1
  6028  6115  6116      1
  6029  6115  6117      1
  6030  6115  6118      1
  6031  6116  6119      1
  6032  6116  6120      1
  6033  6116  6121      1
  6034  6121  6122      1
  6035  6121  6123      1
  6036  6121  6124      1
  6037  6122  6125      1
  6038  6122  6126      1
  6039  6122  6127      1
  6040  6127  6128      1
  6041  6127  6129      1
  6042  6127  6130      1
  6043  6128  6131      1
  6044  6128  6132      1
  6045  6128  6133      1
  6046  6133  6134      1
  6047  6133  6135      1
  6048  6133  6136      1
  6049  6134  6137      1
  6050  6134  6138      1
  6051  6134  6139      1
  6052  6139  6140      1
  6053  6139  6141      1
  6054  6139  6142      1
  6055  6140  6143      1
  6056  6140  6144      1
  6057  6140  6145      1
  6058  6145  6146      1
  6059  6145  6147      1
  6060  6145  6148      1
  6061  6146  6149      1
  6062  6146  6150      1
  6063  6146  6151      1
  6064  6151  6152      1
  6065  6151  6153      1
  6066  6151  6154      1
  6067  6152  6155      1
  6068  6152  6156      1
  6069  6152  6157      1
  6070  6157  6158      1
  6071  6157  6159      1
  6072  6157  6160      1
  6073  6158  6161      1
  6074  6158  6162      1
  6075  6158  6163      1
  6076  6163  6164      1
  6077  6163  6165      1
  6078  6163  6166      1
  6079  6164  6167      1
  6080  6164  6168      1
  6081  6164  6169      1
  6082  6169  6170      1
  6083  6169  6171      1
  6084  6169  6172      1
  6085  6170  6173      1
  6086  6170  6174      1
  6087  6170  6175      1
  6088  6175  6176      1
  6089  6175  6177      1
  6090  6175  6178      1
  6091  6176  6179      1
  6092  6176  6180      1
  6093  6176  6181      1
  6094  6181  6182      1
  6095  6181  6183      1
  6096  6181  6184      1
  6097  6182  6185      1
  6098  6182  6186      1
  6099  6182  6187      1
  6100  6187  6188      1
  6101  6187  6189      1
  6102  6187  6190      1
  6103  6188  6191      1
  6104  6188  6192      1
  6105  6188  6193      1
  6106  6193  6194      1
  6107  6193  6195      1
  6108  6193  6196      1
  6109  6194  6197      1
  6110  6194  6198      1
  6111  6194  6199      1
  6112  6199  6200      1
  6113  6199  6201      1
  6114  6199  6202      1
  6115  6200  6203      1
  6116  6200  6204      1
  6117  6200  6205      1
  6118  6205  6206      1
  6119  6205  6207      1
  6120  6205  6208      1
  6121  6206  6209      1
  6122  6206  6210      1
  6123  6206  6211      1
  6124  6211  6212      1
  6125  6211  6213      1
  6126  6211  6214      1
  6127  6212  6215      1
  6128  6212  6216      1
  6129  6212  6217      1
  6130  6217  6218      1
  6131  6217  6219      1
  6132  6217  6220      1
  6133  6218  6221      1
  6134  6218  6222      1
  6135  6218  6223      1
  6136  6223  6224      1
  6137  6223  6225      1
  6138  6223  6226      1
  6139  6224  6227      1
  6140  6224  6228      1
  6141  6224  6229      1
  6142  6229  6230      1
  6143  6229  6231      1
  6144  6229  6232      1
  6145  6230  6233      1
  6146  6230  6234      1
  6147  6230  6235      1
  6148  6235  6236      1
  6149  6235  6237      1
  6150  6235  6238      1
  6151  6236  6239      1
  6152  6236  6240      1
  6153  6236  6241      1
  6154  6241  6242      1
  6155  6241  6243      1
  6156  6241  6244      1
  6157  6242  6245      1
  6158  6242  6246      1
  6159  6242  6247      1
  6160  6247  6248      1
  6161  6247  6249      1
  6162  6247  6250      1
  6163  6248  6251      1
  6164  6248  6252      1
  6165  6248  6253      1
  6166  6253  6254      1
  6167  6253  6255      1
  6168  6253  6256      1
  6169  6254  6257      1
  6170  6254  6258      1
  6171  6254  6259      1
  6172  6259  6260      1
  6173  6259  6261      1
  6174  6259  6262      1
  6175  6260  6263      1
  6176  6260  6264      1
  6177  6260  6265      1
  6178  6265  6266      1
  6179  6265  6267      1
  6180  6265  6268      1
  6181  6266  6269      1
  6182  6266  6270      1
  6183  6266  6271      1
  6184  6271  6272      1
  6185  6271  6273      1
  6186  6271  6274      1
  6187  6272  6275      1
  6188  6272  6276      1
  6189  6277  6278      1
  6190  6277  6279      1
  6191  6277  6280      1
  6192  6278  6281      1
  6193  6278  6282      1
  6194  6278  6283      1
  6195  6283  6284      1
  6196  6283  6285      1
  6197  6283  6286      1
  6198  6284  6287      1
  6199  6284  6288      1
  6200  6284  6289      1
  6201  6289  6290      1
  6202  6289  6291      1
  6203  6289  6292      1
  6204  6290  6293      1
  6205  6290  6294      1
  6206  6290  6295      1
  6207  6295  6296      1
  6208  6295  6297      1
  6209  6295  6298      1
  6210  6296  6299      1
  6211  6296  6300      1
  6212  6296  6301      1
  6213  6301  6302      1
  6214  6301  6303      1
  6215  6301  6304      1
  6216  6302  6305      1
  6217  6302  6306      1
  6218  6302  6307      1
  6219  6307  6308      1
  6220  6307  6309      1
  6221  6307  6310      1
  6222  6308  6311      1
  6223  6308  6312      1
  6224  6308  6313      1
  6225  6313  6314      1
  6226  6313  6315      1
  6227  6313  6316      1
  6228  6314  6317      1
  6229  6314  6318      1
  6230  6314  6319      1
  6231  6319  6320      1
  6232  6319  6321      1
  6233  6319  6322      1
  6234  6320  6323      1
  6235  6320  6324      1
  6236  6320  6325      1
  6237  6325  6326      1
  6238  6325  6327      1
  6239  6325  6328      1
  6240  6326  6329      1
  6241  6326  6330      1
  6242  6326  6331      1
  6243  6331  6332      1
  6244  6331  6333      1
  6245  6331  6334      1
  6246  6332  6335      1
  6247  6332  6336      1
  6248  6332  6337      1
  6249  6337  6338      1
  6250  6337  6339      1
  6251  6337  6340      1
  6252  6338  6341      1
  6253  6338  6342      1
  6254  6338  6343      1
  6255  6343  6344      1
  6256  6343  6345      1
  6257  6343  6346      1
  6258  6344  6347      1
  6259  6344  6348      1
  6260  6344  6349      1
  6261  6349  6350      1
  6262  6349  6351      1
  6263  6349  6352      1
  6264  6350  6353      1
  6265  6350  6354      1
  6266  6350  6355      1
  6267  6355  6356      1
  6268  6355  6357      1
  6269  6355  6358      1
  6270  6356  6359      1
  6271  6356  6360      1
  6272  6356  6361      1
  6273  6361  6362      1
  6274  6361  6363      1
  6275  6361  6364      1
  6276  6362  6365      1
  6277  6362  6366      1
  6278  6362  6367      1
  6279  6367  6368      1
  6280  6367  6369      1
  6281  6367  6370      1
  6282  6368  6371      1
  6283  6368  6372      1
  6284  6368  6373      1
  6285  6373  6374      1
  6286  6373  6375      1
  6287  6373  6376      1
  6288  6374  6377      1
  6289  6374  6378      1
  6290  6374  6379      1
  6291  6379  6380      1
  6292  6379  6381      1
  6293  6379  6382      1
  6294  6380  6383      1
  6295  6380  6384      1
  6296  6380  6385      1
  6297  6385  6386      1
  6298  6385  6387      1
  6299  6385  6388      1
  6300  6386  6389      1
  6301  6386  6390      1
  6302  6386  6391      1
  6303  6391  6392      1
  6304  6391  6393      1
  6305  6391  6394      1
  6306  6392  6395      1
  6307  6392  6396      1
  6308  6392  6397      1
  6309  6397  6398      1
  6310  6397  6399      1
  6311  6397  6400      1
  6312  6398  6401      1
  6313  6398  6402      1
  6314  6398  6403      1
  6315  6403  6404      1
  6316  6403  6405      1
  6317  6403  6406      1
  6318  6404  6407      1
  6319  6404  6408      1
  6320  6404  6409      1
  6321  6409  6410      1
  6322  6409  6411      1
  6323  6409  6412      1
  6324  6410  6413      1
  6325  6410  6414      1
  6326  6410  6415      1
  6327  6415  6416      1
  6328  6415  6417      1
  6329  6415  6418      1
  6330  6416  6419      1
  6331  6416  6420      1
  6332  6416  6421      1
  6333  6421  6422      1
  6334  6421  6423      1
  6335  6421  6424      1
  6336  6422  6425      1
  6337  6422  6426      1
  6338  6422  6427      1
  6339  6427  6428      1
  6340  6427  6429      1
  6341  6427  6430      1
  6342  6428  6431      1
  6343  6428  6432      1
  6344  6428  6433      1
  6345  6433  6434      1
  6346  6433  6435      1
  6347  6433  6436      1
  6348  6434  6437      1
  6349  6434  6438      1
  6350  6434  6439      1
  6351  6439  6440      1
  6352  6439  6441      1
  6353  6439  6442      1
  6354  6440  6443      1
  6355  6440  6444      1
  6356  6445  6446      1
  6357  6445  6447      1
  6358  6445  6448      1
  6359  6446  6449      1
  6360  6446  6450      1
  6361  6446  6451      1
  6362  6451  6452      1
  6363  6451  6453      1
  6364  6451  6454      1
  6365  6452  6455      1
  6366  6452  6456      1
  6367  6452  6457      1
  6368  6457  6458      1
  6369  6457  6459      1
  6370  6457  6460      1
  6371  6458  6461      1
  6372  6458  6462      1
  6373  6458  6463      1
  6374  6463  6464      1
  6375  6463  6465      1
  6376  6463  6466      1
  6377  6464  6467      1
  6378  6464  6468      1
  6379  6464  6469      1
  6380  6469  6470      1
  6381  6469  6471      1
  6382  6469  6472      1
  6383  6470  6473      1
  6384  6470  6474      1
  6385  6470  6475      1
  6386  6475  6476      1
  6387  6475  6477      1
  6388  6475  6478      1
  6389  6476  6479      1
  6390  6476  6480      1
  6391  6476  6481      1
  6392  6481  6482      1
  6393  6481  6483      1
  6394  6481  6484      1
  6395  6482  6485      1
  6396  6482  6486      1
  6397  6482  6487      1
  6398  6487  6488      1
  6399  6487  6489      1
  6400  6487  6490      1
  6401  6488  6491      1
  6402  6488  6492      1
  6403  6488  6493      1
  6404  6493  6494      1
  6405  6493  6495      1
  6406  6493  6496      1
  6407  6494  6497      1
  6408  6494  6498      1
  6409  6494  6499      1
  6410  6499  6500      1
  6411  6499  6501      1
  6412  6499  6502      1
  6413  6500  6503      1
  6414  6500  6504      1
  6415  6500  6505      1
  6416  6505  6506      1
  6417  6505  6507      1
  6418  6505  6508      1
  6419  6506  6509      1
  6420  6506  6510      1
  6421  6506  6511      1
  6422  6511  6512      1
  6423  6511  6513      1
  6424  6511  6514      1
  6425  6512  6515      1
  6426  6512  6516      1
  6427  6512  6517      1
  6428  6517  6518      1
  6429  6517  6519      1
  6430  6517  6520      1
  6431  6518  6521      1
  6432  6518  6522      1
  6433  6518  6523      1
  6434  6523  6524      1
  6435  6523  6525      1
  6436  6523  6526      1
  6437  6524  6527      1
  6438  6524  6528      1
  6439  6524  6529      1
  6440  6529  6530      1
  6441  6529  6531      1
  6442  6529  6532      1
  6443  6530  6533      1
  6444  6530  6534      1
  6445  6530  6535      1
  6446  6535  6536      1
  6447  6535  6537      1
  6448  6535  6538      1
  6449  6536  6539      1
  6450  6536  6540      1
  6451  6536  6541      1
  6452  6541  6542      1
  6453  6541  6543      1
  6454  6541  6544      1
  6455  6542  6545      1
  6456  6542  6546      1
  6457  6542  6547      1
  6458  6547  6548      1
  6459  6547  6549      1
  6460  6547  6550      1
  6461  6548  6551      1
  6462  6548  6552      1
  6463  6548  6553      1
  6464  6553  6554      1
  6465  6553  6555      1
  6466  6553  6556      1
  6467  6554  6557      1
  6468  6554  6558      1
  6469  6554  6559      1
  6470  6559  6560      1
  6471  6559  6561      1
  6472  6559  6562      1
  6473  6560  6563      1
  6474  6560  6564      1
  6475  6560  6565      1
  6476  6565  6566      1
  6477  6565  6567      1
  6478  6565  6568      1
  6479  6566  6569      1
  6480  6566  6570      1
  6481  6566  6571      1
  6482  6571  6572      1
  6483  6571  6573      1
  6484  6571  6574      1
  6485  6572  6575      1
  6486  6572  6576      1
  6487  6572  6577      1
  6488  6577  6578      1
  6489  6577  6579      1
  6490  6577  6580      1
  6491  6578  6581      1
  6492  6578  6582      1
  6493  6578  6583      1
  6494  6583  6584      1
  6495  6583  6585      1
  6496  6583  6586      1
  6497  6584  6587      1
  6498  6584  6588      1
  6499  6584  6589      1
  6500  6589  6590      1
  6501  6589  6591      1
  6502  6589  6592      1
  6503  6590  6593      1
  6504  6590  6594      1
  6505  6590  6595      1
  6506  6595  6596      1
  6507  6595  6597      1
  6508  6595  6598      1
  6509  6596  6599      1
  6510  6596  6600      1
  6511  6596  6601      1
  6512  6601  6602      1
  6513  6601  6603      1
  6514  6601  6604      1
  6515  6602  6605      1
  6516  6602  6606      1
  6517  6602  6607      1
  6518  6607  6608      1
  6519  6607  6609      1
  6520  6607  6610      1
  6521  6608  6611      1
  6522  6608  6612      1
  6523  6608  6613      1
  6524  6613  6614      1
  6525  6613  6615      1
  6526  6613  6616      1
  6527  6614  6617      1
  6528  6614  6618      1
  6529  6614  6619      1
  6530  6619  6620      1
  6531  6619  6621      1
  6532  6619  6622      1
  6533  6620  6623      1
  6534  6620  6624      1
  6535  6620  6625      1
  6536  6625  6626      1
  6537  6625  6627      1
  6538  6625  6628      1
  6539  6626  6629      1
  6540  6626  6630      1
  6541  6626  6631      1
  6542  6631  6632      1
  6543  6631  6633      1
  6544  6631  6634      1
  6545  6632  6635      1
  6546  6632  6636      1
  6547  6632  6637      1
  6548  6637  6638      1
  6549  6637  6639      1
  6550  6637  6640      1
  6551  6638  6641      1
  6552  6638  6642      1
  6553  6638  6643      1
  6554  6643  6644      1
  6555  6643  6645      1
  6556  6643  6646      1
  6557  6644  6647      1
  6558  6644  6648      1
  6559  6644  6649      1
  6560  6649  6650      1
  6561  6649  6651      1
  6562  6649  6652      1
  6563  6650  6653      1
  6564  6650  6654      1
  6565  6650  6655      1
  6566  6655  6656      1
  6567  6655  6657      1
  6568  6655  6658      1
  6569  6656  6659      1
  6570  6656  6660      1
  6571  6656  6661      1
  6572  6661  6662      1
  6573  6661  6663      1
  6574  6661  6664      1
  6575  6662  6665      1
  6576  6662  6666      1
  6577  6662  6667      1
  6578  6667  6668      1
  6579  6667  6669      1
  6580  6667  6670      1
  6581  6668  6671      1
  6582  6668  6672      1
  6583    68   991      1
  6584   206  1082      1
  6585   895  1087      1
  6586    75  1130      1
  6587   959  1135      1
  6588   197  1244      1
  6589   737  1249      1
  6590   205  1322      1
  6591   436  1327      1
  6592    76  1448      1
  6593   469  1453      1
  6594   437  1508      1
  6595   579  1513      1
  6596   461  1658      1
  6597   644  1663      1
  6598   470  1730      1
  6599   593  1735      1
  6600   647  1772      1
  6601   863  1777      1
  6602   596  1880      1
  6603   630  1885      1
  6604   576  1946      1
  6605    36  1951      1
  6606   627  2018      1
  6607   767  2023      1
  6608   428  2132      1
  6609   943  2137      1
  6610    44  2336      1
  6611   799  2341      1
  6612    35  2396      1
  6613   370  2401      1
  6614    43  2672      1
  6615    99  2677      1
  6616   362  2816      1
  6617   831  2821      1
  6618   371  2888      1
  6619   238  2893      1
  6620   107  2954      1
  6621   847  2959      1
  6622   239  3020      1
  6623   491  3025      1
  6624   230  3110      1
  6625   665  3115      1
  6626   100  3212      1
  6627   559  3217      1
  6628   494  3344      1
  6629   131  3349      1
  6630   108  3548      1
  6631   911  3553      1
  6632   139  3770      1
  6633   815  3775      1
  6634   140  3884      1
  6635   545  3889      1
  6636   132  4010      1
  6637   683  4015      1
  6638   542  4130      1
  6639   528  4135      1
  6640   562  4334      1
  6641   879  4339      1
  6642   525  4394      1
  6643   395  4399      1
  6644    67  4694      1
  6645   263  4699      1
  6646   404  4766      1
  6647   304  4771      1
  6648   272  4916      1
  6649   613  4921      1
  6650   271  5000      1
  6651   701  5005      1
  6652   610  5156      1
  6653   783  5161      1
  6654   305  5252      1
  6655     4  5257      1
  6656   403  5378      1
  6657   975  5383      1
  6658    12  5450      1
  6659   927  5455      1
  6660    11  5540      1
  6661   164  5545      1
  6662   296  5792      1
  6663   508  5797      1
  6664   172  5870      1
  6665   751  5875      1
  6666   511  6086      1
  6667   337  6091      1
  6668   173  6272      1
  6669   719  6277      1
  6670   329  6440      1
  6671     3  6445      1
  6672   338  6668      1
