###
### Created by PolyChef-cpp17 on Mon May 12 14:45:27 2025
###

@<TRIPOS>MOLECULE
NO_INFO
7800 7799 1 0 0
SMALL
USER_CHARGES


@<TRIPOS>ATOM
      1 C          99.1909  110.2318   18.3103 C.3       0      M_A    0.0000
      2 C          98.0329  110.5212   17.3603 C.3       0      M_A    0.0000
      3 O          97.0065  111.2488   18.0334 O.3       0      M_A    0.0000
      4 H          98.8299  110.2418   19.3458 H         0      M_A    0.0000
      5 H          99.9439  111.0254   18.2456 H         0      M_A    0.0000
      6 H          97.5764  109.5794   17.0299 H         0      M_A    0.0000
      7 H          98.3666  111.0377   16.4487 H         0      M_A    0.0000
      8 C          97.5317  112.3081   18.8031 C.3       1      M_A    0.0000
      9 C          96.6977  113.5779   18.6641 C.3       1      M_A    0.0000
     10 O          96.7379  114.3348   19.8729 O.3       1      M_A    0.0000
     11 H          97.5725  112.0070   19.8568 H         1      M_A    0.0000
     12 H          98.5684  112.4988   18.5033 H         1      M_A    0.0000
     13 H          95.6445  113.3170   18.4992 H         1      M_A    0.0000
     14 H          97.0048  114.1800   17.7968 H         1      M_A    0.0000
     15 C          95.8296  115.4139   19.8477 C.3       2      M_A    0.0000
     16 C          96.0770  116.3359   18.6578 C.3       2      M_A    0.0000
     17 O          94.9085  117.1026   18.3705 O.3       2      M_A    0.0000
     18 H          94.8046  115.0260   19.8070 H         2      M_A    0.0000
     19 H          95.9027  115.9753   20.7861 H         2      M_A    0.0000
     20 H          96.2826  115.7398   17.7596 H         2      M_A    0.0000
     21 H          96.9572  116.9774   18.8092 H         2      M_A    0.0000
     22 C          94.7507  118.1775   19.2705 C.3       3      M_A    0.0000
     23 C          93.4064  118.8757   19.0901 C.3       3      M_A    0.0000
     24 O          93.1822  119.8056   20.1487 O.3       3      M_A    0.0000
     25 H          94.8389  117.8070   20.2989 H         3      M_A    0.0000
     26 H          95.5715  118.8909   19.1353 H         3      M_A    0.0000
     27 H          92.5930  118.1411   19.1483 H         3      M_A    0.0000
     28 H          93.3191  119.3536   18.1036 H         3      M_A    0.0000
     29 C          94.3464  120.5398   20.4586 C.3       4      M_A    0.0000
     30 C          94.1714  122.0280   20.1726 C.3       4      M_A    0.0000
     31 O          93.6094  122.6899   21.3048 O.3       4      M_A    0.0000
     32 H          94.5976  120.3944   21.5162 H         4      M_A    0.0000
     33 H          95.1932  120.1397   19.8895 H         4      M_A    0.0000
     34 H          93.4598  122.1690   19.3490 H         4      M_A    0.0000
     35 H          95.1113  122.4994   19.8509 H         4      M_A    0.0000
     36 C          92.4238  123.3798   20.9752 C.3       5      M_A    0.0000
     37 C          92.6711  124.4678   19.9350 C.3       5      M_A    0.0000
     38 O          91.4633  125.1748   19.6571 O.3       5      M_A    0.0000
     39 H          91.6820  122.6673   20.5947 H         5      M_A    0.0000
     40 H          91.9884  123.8127   21.8830 H         5      M_A    0.0000
     41 H          92.9870  124.0137   18.9871 H         5      M_A    0.0000
     42 H          93.4810  125.1485   20.2349 H         5      M_A    0.0000
     43 C          91.0295  125.9305   20.7666 C.3       6      M_A    0.0000
     44 C          92.0606  126.9768   21.1782 C.3       6      M_A    0.0000
     45 O          91.6746  128.2678   20.7089 O.3       6      M_A    0.0000
     46 H          90.0808  126.4235   20.5227 H         6      M_A    0.0000
     47 H          90.8136  125.2584   21.6048 H         6      M_A    0.0000
     48 H          93.0269  126.7545   20.7078 H         6      M_A    0.0000
     49 H          92.2392  126.9752   22.2633 H         6      M_A    0.0000
     50 C          92.0397  129.2867   21.6138 C.3       7      M_A    0.0000
     51 C          92.7702  130.4298   20.9161 C.3       7      M_A    0.0000
     52 O          92.7808  131.5924   21.7433 O.3       7      M_A    0.0000
     53 H          91.1408  129.6718   22.1102 H         7      M_A    0.0000
     54 H          92.6652  128.8635   22.4079 H         7      M_A    0.0000
     55 H          92.2367  130.7096   19.9988 H         7      M_A    0.0000
     56 H          93.7852  130.1422   20.6059 H         7      M_A    0.0000
     57 C          94.0583  132.1887   21.7953 C.3       8      M_A    0.0000
     58 C          94.0212  133.6487   21.3546 C.3       8      M_A    0.0000
     59 O          95.1074  134.3711   21.9326 O.3       8      M_A    0.0000
     60 H          94.4498  132.1217   22.8175 H         8      M_A    0.0000
     61 H          94.7534  131.6192   21.1680 H         8      M_A    0.0000
     62 H          93.1038  134.1265   21.7215 H         8      M_A    0.0000
     63 H          94.0031  133.7486   20.2597 H         8      M_A    0.0000
     64 C          96.1218  134.6384   20.9893 C.3       9      M_A    0.0000
     65 C          97.0078  135.8018   21.4236 C.3       9      M_A    0.0000
     66 O          98.3799  135.5050   21.1684 O.3       9      M_A    0.0000
     67 H          96.7349  133.7399   20.8496 H         9      M_A    0.0000
     68 H          95.6680  134.8487   20.0141 H         9      M_A    0.0000
     69 H          96.9219  135.9527   22.5072 H         9      M_A    0.0000
     70 H          96.7029  136.7493   20.9561 H         9      M_A    0.0000
     71 C          99.1869  136.6609   21.2245 C.3      10      M_A    0.0000
     72 C          98.8769  137.5099   22.4534 C.3      10      M_A    0.0000
     73 O         100.0823  137.8699   23.1268 O.3      10      M_A    0.0000
     74 H         100.2434  136.3669   21.2360 H        10      M_A    0.0000
     75 H          99.0472  137.2489   20.3103 H        10      M_A    0.0000
     76 H          98.2858  136.9268   23.1710 H        10      M_A    0.0000
     77 H          98.2719  138.3932   22.2024 H        10      M_A    0.0000
     78 C          99.8385  138.2932   24.4503 C.3      11      M_A    0.0000
     79 C         100.8339  139.3594   24.8972 C.3      11      M_A    0.0000
     80 O         100.2841  140.1410   25.9568 O.3      11      M_A    0.0000
     81 H          98.8178  138.6874   24.5242 H        11      M_A    0.0000
     82 H          99.8779  137.4294   25.1235 H        11      M_A    0.0000
     83 H         101.0316  140.0553   24.0720 H        11      M_A    0.0000
     84 H         101.8060  138.9260   25.1736 H        11      M_A    0.0000
     85 C         101.0960  141.2527   26.2657 C.3      12      M_A    0.0000
     86 C         101.3361  141.3801   27.7668 C.3      12      M_A    0.0000
     87 O         102.5314  142.1172   28.0190 O.3      12      M_A    0.0000
     88 H         102.0566  141.1576   25.7451 H        12      M_A    0.0000
     89 H         100.6305  142.1649   25.8757 H        12      M_A    0.0000
     90 H         101.4888  140.3862   28.2064 H        12      M_A    0.0000
     91 H         100.4714  141.8169   28.2870 H        12      M_A    0.0000
     92 C         102.2962  143.5081   28.0418 C.3      13      M_A    0.0000
     93 C         103.3119  144.2409   28.9126 C.3      13      M_A    0.0000
     94 O         103.9374  145.2889   28.1733 O.3      13      M_A    0.0000
     95 H         102.3360  143.9007   27.0186 H        13      M_A    0.0000
     96 H         101.2784  143.7009   28.3996 H        13      M_A    0.0000
     97 H         104.1138  143.5534   29.2104 H        13      M_A    0.0000
     98 H         102.8634  144.6128   29.8452 H        13      M_A    0.0000
     99 C         104.9061  145.9682   28.9417 C.3      14      M_A    0.0000
    100 C         105.8451  145.0004   29.6549 C.3      14      M_A    0.0000
    101 O         107.0918  145.6340   29.9384 O.3      14      M_A    0.0000
    102 H         105.4865  146.6329   28.2905 H        14      M_A    0.0000
    103 H         104.4061  146.6187   29.6682 H        14      M_A    0.0000
    104 H         106.0739  144.1504   28.9996 H        14      M_A    0.0000
    105 H         105.3892  144.5761   30.5612 H        14      M_A    0.0000
    106 C         107.1472  146.1157   31.2633 C.3      15      M_A    0.0000
    107 C         108.5256  145.9108   31.8840 C.3      15      M_A    0.0000
    108 O         108.6188  146.6023   33.1286 O.3      15      M_A    0.0000
    109 H         106.8927  147.1823   31.2737 H        15      M_A    0.0000
    110 H         106.3801  145.6165   31.8661 H        15      M_A    0.0000
    111 H         109.2964  146.3430   31.2333 H        15      M_A    0.0000
    112 H         108.7754  144.8453   31.9910 H        15      M_A    0.0000
    113 C         108.3407  145.7557   34.2223 C.3      16      M_A    0.0000
    114 C         109.1511  146.1389   35.4566 C.3      16      M_A    0.0000
    115 O         108.4200  145.8398   36.6449 O.3      16      M_A    0.0000
    116 H         107.2700  145.8017   34.4551 H        16      M_A    0.0000
    117 H         108.5440  144.7162   33.9409 H        16      M_A    0.0000
    118 H         109.3260  147.2223   35.4673 H        16      M_A    0.0000
    119 H         110.1443  145.6670   35.4606 H        16      M_A    0.0000
    120 C         109.2687  145.4320   37.6955 C.3      17      M_A    0.0000
    121 C         110.1962  146.5569   38.1445 C.3      17      M_A    0.0000
    122 O         110.2221  146.6422   39.5686 O.3      17      M_A    0.0000
    123 H         108.6613  145.0939   38.5437 H        17      M_A    0.0000
    124 H         109.8529  144.5613   37.3766 H        17      M_A    0.0000
    125 H         109.8150  147.5213   37.7853 H        17      M_A    0.0000
    126 H         111.2070  146.4502   37.7250 H        17      M_A    0.0000
    127 C         111.4957  147.0120   40.0498 C.3      18      M_A    0.0000
    128 C         111.4460  148.3134   40.8443 C.3      18      M_A    0.0000
    129 O         111.4309  148.0414   42.2449 O.3      18      M_A    0.0000
    130 H         111.8933  146.2088   40.6818 H        18      M_A    0.0000
    131 H         112.1913  147.1061   39.2081 H        18      M_A    0.0000
    132 H         110.5141  148.8498   40.6248 H        18      M_A    0.0000
    133 H         112.2647  148.9948   40.5712 H        18      M_A    0.0000
    134 C         110.4114  147.1302   42.5923 C.3      19      M_A    0.0000
    135 C         110.7077  146.4233   43.9112 C.3      19      M_A    0.0000
    136 O         109.4933  146.0378   44.5534 O.3      19      M_A    0.0000
    137 H         109.4561  147.6637   42.6661 H        19      M_A    0.0000
    138 H         110.2862  146.3972   41.7872 H        19      M_A    0.0000
    139 H         111.2142  147.1125   44.5990 H        19      M_A    0.0000
    140 H         111.3862  145.5684   43.7775 H        19      M_A    0.0000
    141 C         108.7427  147.1561   44.9731 C.3      20      M_A    0.0000
    142 C         109.4036  147.8753   46.1449 C.3      20      M_A    0.0000
    143 O         108.7444  147.5464   47.3668 O.3      20      M_A    0.0000
    144 H         108.6244  147.8511   44.1331 H        20      M_A    0.0000
    145 H         107.7305  146.8360   45.2448 H        20      M_A    0.0000
    146 H         109.3014  148.9611   46.0226 H        20      M_A    0.0000
    147 H         110.4830  147.6720   46.1977 H        20      M_A    0.0000
    148 C         109.1526  146.2903   47.8627 C.3      21      M_A    0.0000
    149 C         110.6201  146.2948   48.2796 C.3      21      M_A    0.0000
    150 O         110.9162  145.1455   49.0715 O.3      21      M_A    0.0000
    151 H         108.5263  146.0164   48.7202 H        21      M_A    0.0000
    152 H         108.9754  145.5218   47.1018 H        21      M_A    0.0000
    153 H         110.8257  147.1667   48.9137 H        21      M_A    0.0000
    154 H         111.2942  146.3776   47.4149 H        21      M_A    0.0000
    155 C         112.3028  144.8925   49.1326 C.3      22      M_A    0.0000
    156 C         113.1177  146.1805   49.0676 C.3      22      M_A    0.0000
    157 O         114.1930  146.1372   50.0045 O.3      22      M_A    0.0000
    158 H         112.5343  144.3559   50.0606 H        22      M_A    0.0000
    159 H         112.5881  144.2198   48.3158 H        22      M_A    0.0000
    160 H         112.4914  147.0339   49.3570 H        22      M_A    0.0000
    161 H         113.4741  146.3920   48.0490 H        22      M_A    0.0000
    162 C         115.4453  146.0351   49.3629 C.3      23      M_A    0.0000
    163 C         116.5430  146.7500   50.1447 C.3      23      M_A    0.0000
    164 O         117.8278  146.4006   49.6317 O.3      23      M_A    0.0000
    165 H         115.7074  144.9770   49.2426 H        23      M_A    0.0000
    166 H         115.3712  146.4448   48.3492 H        23      M_A    0.0000
    167 H         116.5302  146.4220   51.1919 H        23      M_A    0.0000
    168 H         116.3945  147.8394   50.1617 H        23      M_A    0.0000
    169 C         118.7387  147.4742   49.7201 C.3      24      M_A    0.0000
    170 C         118.6956  148.1433   51.0904 C.3      24      M_A    0.0000
    171 O         119.9889  148.6275   51.4491 O.3      24      M_A    0.0000
    172 H         119.7530  147.1084   49.5200 H        24      M_A    0.0000
    173 H         118.5205  148.2046   48.9328 H        24      M_A    0.0000
    174 H         118.4188  147.4080   51.8567 H        24      M_A    0.0000
    175 H         117.9364  148.9374   51.1378 H        24      M_A    0.0000
    176 C         120.2076  148.5607   52.8413 C.3      25      M_A    0.0000
    177 C         119.3242  149.5446   53.6020 C.3      25      M_A    0.0000
    178 O         119.1898  149.1425   54.9644 O.3      25      M_A    0.0000
    179 H         120.0106  147.5405   53.1921 H        25      M_A    0.0000
    180 H         121.2649  148.7544   53.0549 H        25      M_A    0.0000
    181 H         118.3115  149.5419   53.1789 H        25      M_A    0.0000
    182 H         119.6901  150.5781   53.5172 H        25      M_A    0.0000
    183 C         119.0359  150.2489   55.8261 C.3      26      M_A    0.0000
    184 C         118.0304  149.9663   56.9380 C.3      26      M_A    0.0000
    185 O         118.6362  150.1528   58.2163 O.3      26      M_A    0.0000
    186 H         120.0076  150.5070   56.2642 H        26      M_A    0.0000
    187 H         118.7249  151.1245   55.2449 H        26      M_A    0.0000
    188 H         117.7139  148.9163   56.8976 H        26      M_A    0.0000
    189 H         117.1161  150.5675   56.8297 H        26      M_A    0.0000
    190 C         117.6887  150.0967   59.2601 C.3      27      M_A    0.0000
    191 C         116.9305  148.7729   59.2673 C.3      27      M_A    0.0000
    192 O         116.1882  148.6309   60.4775 O.3      27      M_A    0.0000
    193 H         118.1976  150.2356   60.2215 H        27      M_A    0.0000
    194 H         116.9897  150.9353   59.1647 H        27      M_A    0.0000
    195 H         117.6398  147.9359   59.2412 H        27      M_A    0.0000
    196 H         116.2892  148.6602   58.3812 H        27      M_A    0.0000
    197 C         115.7095  149.8714   60.9491 C.3      28      M_A    0.0000
    198 C         114.5218  150.3690   60.1313 C.3      28      M_A    0.0000
    199 O         113.7081  151.2408   60.9147 O.3      28      M_A    0.0000
    200 H         115.4174  149.7724   62.0015 H        28      M_A    0.0000
    201 H         116.5209  150.6078   60.9291 H        28      M_A    0.0000
    202 H         113.8825  149.5231   59.8481 H        28      M_A    0.0000
    203 H         114.8383  150.8435   59.1912 H        28      M_A    0.0000
    204 C         113.4514  152.4584   60.2501 C.3      29      M_A    0.0000
    205 C         112.1740  153.1220   60.7553 C.3      29      M_A    0.0000
    206 O         112.2430  154.5358   60.5762 O.3      29      M_A    0.0000
    207 H         114.3009  153.1371   60.3927 H        29      M_A    0.0000
    208 H         113.3861  152.2792   59.1709 H        29      M_A    0.0000
    209 H         112.0669  152.9532   61.8344 H        29      M_A    0.0000
    210 H         111.2750  152.6960   60.2868 H        29      M_A    0.0000
    211 C         110.9758  155.1436   60.6991 C.3      30      M_A    0.0000
    212 C         111.0857  156.6014   61.1348 C.3      30      M_A    0.0000
    213 O         109.9684  157.3494   60.6574 O.3      30      M_A    0.0000
    214 H         110.4490  155.0842   59.7391 H        30      M_A    0.0000
    215 H         110.3666  154.5777   61.4131 H        30      M_A    0.0000
    216 H         111.9767  157.0592   60.6865 H        30      M_A    0.0000
    217 H         111.2049  156.6985   62.2236 H        30      M_A    0.0000
    218 C         109.2816  157.9956   61.7067 C.3      31      M_A    0.0000
    219 C         108.7920  159.3807   61.2958 C.3      31      M_A    0.0000
    220 O         109.0071  160.3179   62.3500 O.3      31      M_A    0.0000
    221 H         108.4288  157.3799   62.0170 H        31      M_A    0.0000
    222 H         109.9364  158.0675   62.5826 H        31      M_A    0.0000
    223 H         107.7088  159.3575   61.1210 H        31      M_A    0.0000
    224 H         109.2485  159.7167   60.3535 H        31      M_A    0.0000
    225 C         109.8611  159.8008   63.3468 C.3      32      M_A    0.0000
    226 C         111.3236  159.8347   62.9141 C.3      32      M_A    0.0000
    227 O         112.1685  160.0925   64.0346 O.3      32      M_A    0.0000
    228 H         109.7358  160.3798   64.2696 H        32      M_A    0.0000
    229 H         109.5598  158.7756   63.5905 H        32      M_A    0.0000
    230 H         111.4859  160.6606   62.2098 H        32      M_A    0.0000
    231 H         111.6185  158.9169   62.3851 H        32      M_A    0.0000
    232 C         113.5050  160.3193   63.6439 C.3      33      M_A    0.0000
    233 C         114.0659  159.1522   62.8374 C.3      33      M_A    0.0000
    234 O         115.2664  158.6651   63.4353 O.3      33      M_A    0.0000
    235 H         113.5592  161.2388   63.0488 H        33      M_A    0.0000
    236 H         114.1204  160.4985   64.5329 H        33      M_A    0.0000
    237 H         114.3394  159.4913   61.8301 H        33      M_A    0.0000
    238 H         113.3251  158.3510   62.7016 H        33      M_A    0.0000
    239 C         115.2343  157.2661   63.6142 C.3      34      M_A    0.0000
    240 C         114.9919  156.5316   62.2993 C.3      34      M_A    0.0000
    241 O         116.0634  155.6294   62.0281 O.3      34      M_A    0.0000
    242 H         116.1826  156.9335   64.0532 H        34      M_A    0.0000
    243 H         114.4575  157.0085   64.3431 H        34      M_A    0.0000
    244 H         114.9752  157.2484   61.4685 H        34      M_A    0.0000
    245 H         114.0176  156.0219   62.2853 H        34      M_A    0.0000
    246 C         116.3143  154.7688   63.1174 C.3      35      M_A    0.0000
    247 C         117.2128  153.6009   62.7224 C.3      35      M_A    0.0000
    248 O         118.2100  153.3807   63.7189 O.3      35      M_A    0.0000
    249 H         116.7835  155.3370   63.9296 H        35      M_A    0.0000
    250 H         115.3635  154.3992   63.5179 H        35      M_A    0.0000
    251 H         117.7507  153.8400   61.7962 H        35      M_A    0.0000
    252 H         116.6356  152.6880   62.5160 H        35      M_A    0.0000
    253 C         119.2451  152.5441   63.2507 C.3      36      M_A    0.0000
    254 C         118.6993  151.2797   62.5946 C.3      36      M_A    0.0000
    255 O         119.7375  150.5926   61.8974 O.3      36      M_A    0.0000
    256 H         119.8620  153.0962   62.5314 H        36      M_A    0.0000
    257 H         119.9101  152.2850   64.0823 H        36      M_A    0.0000
    258 H         117.9461  151.5446   61.8416 H        36      M_A    0.0000
    259 H         118.1933  150.6249   63.3187 H        36      M_A    0.0000
    260 C         120.8558  150.3529   62.7234 C.3      37      M_A    0.0000
    261 C         121.6510  149.1355   62.2623 C.3      37      M_A    0.0000
    262 O         122.9932  149.2068   62.7411 O.3      37      M_A    0.0000
    263 H         121.5036  151.2378   62.7247 H        37      M_A    0.0000
    264 H         120.5235  150.2207   63.7593 H        37      M_A    0.0000
    265 H         121.7152  149.1242   61.1667 H        37      M_A    0.0000
    266 H         121.1656  148.1922   62.5516 H        37      M_A    0.0000
    267 C         123.5849  147.9299   62.8389 C.3      38      M_A    0.0000
    268 C         125.1065  148.0022   62.7584 C.3      38      M_A    0.0000
    269 O         125.6935  146.8729   63.4035 O.3      38      M_A    0.0000
    270 H         123.2873  147.4624   63.7853 H        38      M_A    0.0000
    271 H         123.1919  147.2832   62.0462 H        38      M_A    0.0000
    272 H         125.4676  148.8870   63.2980 H        38      M_A    0.0000
    273 H         125.4601  148.1082   61.7226 H        38      M_A    0.0000
    274 C         126.8991  146.4817   62.7840 C.3      39      M_A    0.0000
    275 C         127.3878  145.1306   63.2966 C.3      39      M_A    0.0000
    276 O         128.3747  144.5920   62.4180 O.3      39      M_A    0.0000
    277 H         126.7514  146.4330   61.6984 H        39      M_A    0.0000
    278 H         127.6620  147.2507   62.9505 H        39      M_A    0.0000
    279 H         126.5583  144.4120   63.3053 H        39      M_A    0.0000
    280 H         127.7539  145.1902   64.3318 H        39      M_A    0.0000
    281 C         128.2925  143.1861   62.3340 C.3      40      M_A    0.0000
    282 C         129.5644  142.5124   62.8396 C.3      40      M_A    0.0000
    283 O         129.4753  141.0973   62.6803 O.3      40      M_A    0.0000
    284 H         127.4326  142.8363   62.9179 H        40      M_A    0.0000
    285 H         128.0926  142.8929   61.2972 H        40      M_A    0.0000
    286 H         129.6812  142.6942   63.9156 H        40      M_A    0.0000
    287 H         130.4657  142.9199   62.3593 H        40      M_A    0.0000
    288 C         130.7417  140.4797   62.7521 C.3      41      M_A    0.0000
    289 C         131.7327  141.3101   63.5618 C.3      41      M_A    0.0000
    290 O         132.7082  140.4661   64.1716 O.3      41      M_A    0.0000
    291 H         130.6370  139.4861   63.2042 H        41      M_A    0.0000
    292 H         131.1243  140.3114   61.7390 H        41      M_A    0.0000
    293 H         131.2109  141.8197   64.3818 H        41      M_A    0.0000
    294 H         132.1999  142.1003   62.9564 H        41      M_A    0.0000
    295 C         133.0155  139.3501   63.3650 C.3      42      M_A    0.0000
    296 C         134.4771  138.9356   63.5034 C.3      42      M_A    0.0000
    297 O         134.5986  137.5148   63.4538 O.3      42      M_A    0.0000
    298 H         132.3662  138.5109   63.6422 H        42      M_A    0.0000
    299 H         132.7822  139.5796   62.3191 H        42      M_A    0.0000
    300 H         134.8616  139.2434   64.4841 H        42      M_A    0.0000
    301 H         135.1171  139.4249   62.7548 H        42      M_A    0.0000
    302 C         135.8219  137.0726   64.0000 C.3      43      M_A    0.0000
    303 C         136.5960  136.1953   63.0210 C.3      43      M_A    0.0000
    304 O         137.9657  136.1037   63.4102 O.3      43      M_A    0.0000
    305 H         136.4311  137.9408   64.2786 H        43      M_A    0.0000
    306 H         135.6305  136.5269   64.9310 H        43      M_A    0.0000
    307 H         136.5894  136.6529   62.0235 H        43      M_A    0.0000
    308 H         136.1384  135.2020   62.9067 H        43      M_A    0.0000
    309 C         138.1780  135.0698   64.3463 C.3      44      M_A    0.0000
    310 C         139.3805  134.2074   63.9757 C.3      44      M_A    0.0000
    311 O         139.9744  133.6511   65.1478 O.3      44      M_A    0.0000
    312 H         138.3289  135.5052   65.3415 H        44      M_A    0.0000
    313 H         137.2753  134.4529   64.4206 H        44      M_A    0.0000
    314 H         140.1534  134.8270   63.5035 H        44      M_A    0.0000
    315 H         139.1200  133.4294   63.2435 H        44      M_A    0.0000
    316 C         140.8177  132.5618   64.8433 C.3      45      M_A    0.0000
    317 C         141.6262  132.8081   63.5733 C.3      45      M_A    0.0000
    318 O         142.9371  132.2598   63.7034 O.3      45      M_A    0.0000
    319 H         141.4978  132.3818   65.6846 H        45      M_A    0.0000
    320 H         140.2163  131.6513   64.7413 H        45      M_A    0.0000
    321 H         141.7576  133.8865   63.4173 H        45      M_A    0.0000
    322 H         141.1134  132.4281   62.6779 H        45      M_A    0.0000
    323 C         142.9138  130.8505   63.7625 C.3      46      M_A    0.0000
    324 C         144.3197  130.2623   63.8292 C.3      46      M_A    0.0000
    325 O         144.2761  128.9220   64.3166 O.3      46      M_A    0.0000
    326 H         142.3387  130.5325   64.6406 H        46      M_A    0.0000
    327 H         142.3772  130.4569   62.8917 H        46      M_A    0.0000
    328 H         144.9288  130.8301   64.5441 H        46      M_A    0.0000
    329 H         144.8400  130.3268   62.8626 H        46      M_A    0.0000
    330 C         145.3093  128.1308   63.7717 C.3      47      M_A    0.0000
    331 C         146.6477  128.8628   63.7782 C.3      47      M_A    0.0000
    332 O         147.6656  128.0344   64.3383 O.3      47      M_A    0.0000
    333 H         145.3953  127.1996   64.3445 H        47      M_A    0.0000
    334 H         145.0427  127.8337   62.7510 H        47      M_A    0.0000
    335 H         146.5851  129.7504   64.4206 H        47      M_A    0.0000
    336 H         146.9239  129.2261   62.7777 H        47      M_A    0.0000
    337 C         147.4489  127.7911   65.7110 C.3      48      M_A    0.0000
    338 C         148.0824  126.4784   66.1612 C.3      48      M_A    0.0000
    339 O         149.4538  126.6781   66.5007 O.3      48      M_A    0.0000
    340 H         147.8624  128.6205   66.2973 H        48      M_A    0.0000
    341 H         146.3723  127.7842   65.9155 H        48      M_A    0.0000
    342 H         148.0719  125.7558   65.3353 H        48      M_A    0.0000
    343 H         147.5233  126.0120   66.9851 H        48      M_A    0.0000
    344 C         150.0465  125.5022   67.0068 C.3      49      M_A    0.0000
    345 C         150.0618  124.3832   65.9700 C.3      49      M_A    0.0000
    346 O         151.3750  124.2152   65.4379 O.3      49      M_A    0.0000
    347 H         151.0718  125.7208   67.3287 H        49      M_A    0.0000
    348 H         149.5099  125.1803   67.9065 H        49      M_A    0.0000
    349 H         149.4180  124.6505   65.1223 H        49      M_A    0.0000
    350 H         149.6631  123.4413   66.3739 H        49      M_A    0.0000
    351 C         152.1574  123.3512   66.2326 C.3      50      M_A    0.0000
    352 C         153.0249  122.4285   65.3821 C.3      50      M_A    0.0000
    353 O         154.2539  122.1456   66.0494 O.3      50      M_A    0.0000
    354 H         152.7942  123.9460   66.8984 H        50      M_A    0.0000
    355 H         151.5033  122.7632   66.8863 H        50      M_A    0.0000
    356 H         153.2927  122.9284   64.4425 H        50      M_A    0.0000
    357 H         152.4940  121.5077   65.1000 H        50      M_A    0.0000
    358 C         154.8611  120.9713   65.5569 C.3      51      M_A    0.0000
    359 C         156.0974  121.2808   64.7185 C.3      51      M_A    0.0000
    360 O         157.0635  120.2393   64.8524 O.3      51      M_A    0.0000
    361 H         155.1383  120.3246   66.3981 H        51      M_A    0.0000
    362 H         154.1332  120.4033   64.9666 H        51      M_A    0.0000
    363 H         156.5787  122.1961   65.0861 H        51      M_A    0.0000
    364 H         155.8448  121.4681   63.6648 H        51      M_A    0.0000
    365 C         156.8330  119.1883   63.9400 C.3      52      M_A    0.0000
    366 C         157.8723  118.0800   64.0773 C.3      52      M_A    0.0000
    367 O         157.7791  117.1715   62.9810 O.3      52      M_A    0.0000
    368 H         155.8302  118.7762   64.1052 H        52      M_A    0.0000
    369 H         156.8319  119.5848   62.9183 H        52      M_A    0.0000
    370 H         157.6740  117.4917   64.9823 H        52      M_A    0.0000
    371 H         158.8903  118.4807   64.1880 H        52      M_A    0.0000
    372 C         158.2338  117.7512   61.7779 C.3      53      M_A    0.0000
    373 C         159.7422  117.9789   61.7926 C.3      53      M_A    0.0000
    374 O         160.4316  116.7671   61.4888 O.3      53      M_A    0.0000
    375 H         157.9671  117.1003   60.9367 H        53      M_A    0.0000
    376 H         157.7076  118.6971   61.6062 H        53      M_A    0.0000
    377 H         160.0659  118.2732   62.7991 H        53      M_A    0.0000
    378 H         160.0423  118.7967   61.1215 H        53      M_A    0.0000
    379 C         160.2633  115.7989   62.5010 C.3      54      M_A    0.0000
    380 C         161.0116  116.1753   63.7760 C.3      54      M_A    0.0000
    381 O         161.1588  115.0356   64.6218 O.3      54      M_A    0.0000
    382 H         159.1950  115.6837   62.7205 H        54      M_A    0.0000
    383 H         160.6028  114.8236   62.1340 H        54      M_A    0.0000
    384 H         160.4301  116.9098   64.3476 H        54      M_A    0.0000
    385 H         161.9800  116.6498   63.5609 H        54      M_A    0.0000
    386 C         161.6748  115.3839   65.8878 C.3      55      M_A    0.0000
    387 C         162.9118  114.5639   66.2412 C.3      55      M_A    0.0000
    388 O         162.6882  113.8147   67.4347 O.3      55      M_A    0.0000
    389 H         161.9247  116.4516   65.8978 H        55      M_A    0.0000
    390 H         160.8981  115.2486   66.6490 H        55      M_A    0.0000
    391 H         163.7560  115.2329   66.4513 H        55      M_A    0.0000
    392 H         163.2302  113.9187   65.4097 H        55      M_A    0.0000
    393 C         161.9889  112.6163   67.1797 C.3      56      M_A    0.0000
    394 C         162.8194  111.6401   66.3522 C.3      56      M_A    0.0000
    395 O         162.1272  110.4017   66.2006 O.3      56      M_A    0.0000
    396 H         161.7095  112.1484   68.1314 H        56      M_A    0.0000
    397 H         161.0473  112.8444   66.6676 H        56      M_A    0.0000
    398 H         163.7550  111.4076   66.8766 H        56      M_A    0.0000
    399 H         163.1090  112.0658   65.3806 H        56      M_A    0.0000
    400 C         163.0165  109.3101   66.1118 C.3      57      M_A    0.0000
    401 C         164.1962  109.6128   65.1931 C.3      57      M_A    0.0000
    402 O         165.2763  108.7191   65.4587 O.3      57      M_A    0.0000
    403 H         163.3843  109.0579   67.1137 H        57      M_A    0.0000
    404 H         162.4752  108.4255   65.7575 H        57      M_A    0.0000
    405 H         164.5760  110.6228   65.3932 H        57      M_A    0.0000
    406 H         163.9072  109.5976   64.1323 H        57      M_A    0.0000
    407 C         166.4918  109.1882   64.9175 C.3      58      M_A    0.0000
    408 C         167.6987  108.5332   65.5820 C.3      58      M_A    0.0000
    409 O         168.7418  108.3297   64.6299 O.3      58      M_A    0.0000
    410 H         166.5109  108.9891   63.8393 H        58      M_A    0.0000
    411 H         166.5431  110.2777   65.0241 H        58      M_A    0.0000
    412 H         167.4252  107.5385   65.9562 H        58      M_A    0.0000
    413 H         168.0496  109.1040   66.4539 H        58      M_A    0.0000
    414 C         169.5620  109.4699   64.4972 C.3      59      M_A    0.0000
    415 C         170.3670  109.7400   65.7646 C.3      59      M_A    0.0000
    416 O         171.5781  108.9856   65.7555 O.3      59      M_A    0.0000
    417 H         170.2439  109.3310   63.6496 H        59      M_A    0.0000
    418 H         168.9426  110.3387   64.2471 H        59      M_A    0.0000
    419 H         169.8026  109.4054   66.6442 H        59      M_A    0.0000
    420 H         170.5574  110.8130   65.9113 H        59      M_A    0.0000
    421 C         171.3346  107.6025   65.6217 C.3      60      M_A    0.0000
    422 C         172.5740  106.8520   65.1441 C.3      60      M_A    0.0000
    423 O         172.5869  105.5260   65.6706 O.3      60      M_A    0.0000
    424 H         171.0058  107.1959   66.5856 H        60      M_A    0.0000
    425 H         170.5020  107.4434   64.9271 H        60      M_A    0.0000
    426 H         173.4783  107.3433   65.5252 H        60      M_A    0.0000
    427 H         172.6611  106.8552   64.0479 H        60      M_A    0.0000
    428 C         173.1528  104.6057   64.7633 C.3      61      M_A    0.0000
    429 C         174.4121  103.9549   65.3271 C.3      61      M_A    0.0000
    430 O         174.6110  102.6678   64.7442 O.3      61      M_A    0.0000
    431 H         172.4143  103.8320   64.5214 H        61      M_A    0.0000
    432 H         173.3773  105.1145   63.8189 H        61      M_A    0.0000
    433 H         174.2964  103.7897   66.4059 H        61      M_A    0.0000
    434 H         175.2969  104.5967   65.2074 H        61      M_A    0.0000
    435 C         175.9776  102.3222   64.6873 C.3      62      M_A    0.0000
    436 C         176.3517  101.3088   65.7645 C.3      62      M_A    0.0000
    437 O         177.3899  100.4478   65.2990 O.3      62      M_A    0.0000
    438 H         176.2079  101.9104   63.6973 H        62      M_A    0.0000
    439 H         176.5880  103.2269   64.7872 H        62      M_A    0.0000
    440 H         175.4921  100.6633   65.9849 H        62      M_A    0.0000
    441 H         176.6218  101.7958   66.7127 H        62      M_A    0.0000
    442 C         178.4471  101.1711   64.7079 C.3      63      M_A    0.0000
    443 C         179.7928  100.4852   64.9219 C.3      63      M_A    0.0000
    444 O         180.2118   99.8271   63.7273 O.3      63      M_A    0.0000
    445 H         178.2563  101.2821   63.6337 H        63      M_A    0.0000
    446 H         178.4684  102.1875   65.1173 H        63      M_A    0.0000
    447 H         179.6966   99.7037   65.6863 H        63      M_A    0.0000
    448 H         180.5576  101.1838   65.2910 H        63      M_A    0.0000
    449 C         181.3535   99.0264   63.9412 C.3      64      M_A    0.0000
    450 C         181.0327   97.7942   64.7815 C.3      64      M_A    0.0000
    451 O         182.0939   96.8441   64.6975 O.3      64      M_A    0.0000
    452 H         181.7667   98.7159   62.9739 H        64      M_A    0.0000
    453 H         182.1341   99.6245   64.4248 H        64      M_A    0.0000
    454 H         180.1397   97.2940   64.3856 H        64      M_A    0.0000
    455 H         180.8021   98.0551   65.8246 H        64      M_A    0.0000
    456 C         182.6243   96.5349   65.9677 C.3      65      M_A    0.0000
    457 C         183.7137   95.4704   65.8836 C.3      65      M_A    0.0000
    458 O         184.6108   95.5877   66.9870 O.3      65      M_A    0.0000
    459 H         183.0323   97.4452   66.4232 H        65      M_A    0.0000
    460 H         181.8169   96.2020   66.6298 H        65      M_A    0.0000
    461 H         184.3165   95.6231   64.9793 H        65      M_A    0.0000
    462 H         183.2946   94.4567   65.8062 H        65      M_A    0.0000
    463 C         185.7343   94.7468   66.8426 C.3      66      M_A    0.0000
    464 C         185.4590   93.5920   65.8844 C.3      66      M_A    0.0000
    465 O         186.6758   92.9333   65.5360 O.3      66      M_A    0.0000
    466 H         186.5845   95.3350   66.4768 H        66      M_A    0.0000
    467 H         186.0327   94.3635   67.8249 H        66      M_A    0.0000
    468 H         185.0379   93.9768   64.9468 H        66      M_A    0.0000
    469 H         184.7170   92.8885   66.2889 H        66      M_A    0.0000
    470 C         187.4809   92.6838   66.6673 C.3      67      M_A    0.0000
    471 C         188.4446   91.5246   66.4331 C.3      67      M_A    0.0000
    472 O         189.6588   91.7334   67.1528 O.3      67      M_A    0.0000
    473 H         188.0467   93.5891   66.9181 H        67      M_A    0.0000
    474 H         186.8412   92.4782   67.5331 H        67      M_A    0.0000
    475 H         188.7202   91.4764   65.3719 H        67      M_A    0.0000
    476 H         187.9890   90.5539   66.6770 H        67      M_A    0.0000
    477 C         190.7679   91.1709   66.4867 C.3      68      M_A    0.0000
    478 C         190.4598   89.7765   65.9500 C.3      68      M_A    0.0000
    479 O         191.6523   89.1487   65.4812 O.3      68      M_A    0.0000
    480 H         191.0669   91.8266   65.6601 H        68      M_A    0.0000
    481 H         191.6248   91.1355   67.1690 H        68      M_A    0.0000
    482 H         189.7894   89.8491   65.0842 H        68      M_A    0.0000
    483 H         189.9378   89.1551   66.6920 H        68      M_A    0.0000
    484 C         192.3393   88.4844   66.5190 C.3      69      M_A    0.0000
    485 C         193.1053   87.2694   66.0051 C.3      69      M_A    0.0000
    486 O         194.3079   87.0869   66.7510 O.3      69      M_A    0.0000
    487 H         193.0348   89.1826   67.0002 H        69      M_A    0.0000
    488 H         191.6268   88.1847   67.2958 H        69      M_A    0.0000
    489 H         193.4109   87.4332   64.9638 H        69      M_A    0.0000
    490 H         192.4855   86.3611   66.0044 H        69      M_A    0.0000
    491 C         194.6918   85.7304   66.8056 C.3      70      M_A    0.0000
    492 C         195.9826   85.4747   66.0338 C.3      70      M_A    0.0000
    493 O         196.7086   84.3961   66.6213 O.3      70      M_A    0.0000
    494 H         194.8223   85.4310   67.8524 H        70      M_A    0.0000
    495 H         193.8824   85.1054   66.4116 H        70      M_A    0.0000
    496 H         196.6353   86.3548   66.0954 H        70      M_A    0.0000
    497 H         195.7963   85.3044   64.9636 H        70      M_A    0.0000
    498 C         197.9924   84.2556   66.0533 C.3      71      M_A    0.0000
    499 C         198.5871   82.8782   66.3294 C.3      71      M_A    0.0000
    500 O         199.7041   82.6377   65.4748 O.3      71      M_A    0.0000
    501 H         197.9315   84.4209   64.9709 H        71      M_A    0.0000
    502 H         198.6518   85.0399   66.4418 H        71      M_A    0.0000
    503 H         197.8493   82.0994   66.0980 H        71      M_A    0.0000
    504 H         198.8502   82.7475   67.3891 H        71      M_A    0.0000
    505 C         199.7972   81.2806   65.1009 C.3      72      M_A    0.0000
    506 C         200.8445   80.5362   65.9233 C.3      72      M_A    0.0000
    507 O         200.9281   79.1739   65.5074 O.3      72      M_A    0.0000
    508 H         198.8194   80.8004   65.2271 H        72      M_A    0.0000
    509 H         200.0320   81.2110   64.0327 H        72      M_A    0.0000
    510 H         200.5466   80.5180   66.9793 H        72      M_A    0.0000
    511 H         201.8251   81.0328   65.8889 H        72      M_A    0.0000
    512 C         202.0486   78.5222   66.0643 C.3      73      M_A    0.0000
    513 C         203.2468   78.5481   65.1205 C.3      73      M_A    0.0000
    514 O         204.4527   78.2937   65.8396 O.3      73      M_A    0.0000
    515 H         202.3155   79.0038   67.0127 H        73      M_A    0.0000
    516 H         201.7834   77.4888   66.3147 H        73      M_A    0.0000
    517 H         203.3553   79.5482   64.6816 H        73      M_A    0.0000
    518 H         203.1223   77.8539   64.2768 H        73      M_A    0.0000
    519 C         204.2482   77.3942   66.9070 C.3      74      M_A    0.0000
    520 C         205.2394   76.2352   66.8698 C.3      74      M_A    0.0000
    521 O         205.7970   76.0151   68.1646 O.3      74      M_A    0.0000
    522 H         204.3437   77.9310   67.8586 H        74      M_A    0.0000
    523 H         203.2198   77.0170   66.8752 H        74      M_A    0.0000
    524 H         206.0808   76.4841   66.2106 H        74      M_A    0.0000
    525 H         204.7882   75.3198   66.4604 H        74      M_A    0.0000
    526 C         206.4362   74.7607   68.2552 C.3      75      M_A    0.0000
    527 C         207.3355   74.4942   67.0520 C.3      75      M_A    0.0000
    528 O         208.5144   73.7993   67.4558 O.3      75      M_A    0.0000
    529 H         207.0305   74.7208   69.1760 H        75      M_A    0.0000
    530 H         205.6815   73.9717   68.3486 H        75      M_A    0.0000
    531 H         207.6717   75.4449   66.6189 H        75      M_A    0.0000
    532 H         206.8041   73.9618   66.2500 H        75      M_A    0.0000
    533 C         209.3357   73.4745   66.3557 C.3      76      M_A    0.0000
    534 C         210.3249   72.3637   66.6948 C.3      76      M_A    0.0000
    535 O         210.8756   71.8062   65.5024 O.3      76      M_A    0.0000
    536 H         208.7078   73.1643   65.5117 H        76      M_A    0.0000
    537 H         209.8699   74.3709   66.0210 H        76      M_A    0.0000
    538 H         209.8050   71.5437   67.2064 H        76      M_A    0.0000
    539 H         211.1103   72.7071   67.3836 H        76      M_A    0.0000
    540 C         211.6462   70.6547   65.7678 C.3      77      M_A    0.0000
    541 C         212.1259   70.6146   67.2154 C.3      77      M_A    0.0000
    542 O         212.7367   69.3575   67.5029 O.3      77      M_A    0.0000
    543 H         211.0500   69.7600   65.5518 H        77      M_A    0.0000
    544 H         212.5007   70.6207   65.0825 H        77      M_A    0.0000
    545 H         211.2692   70.7032   67.8956 H        77      M_A    0.0000
    546 H         212.7945   71.4550   67.4517 H        77      M_A    0.0000
    547 C         213.6795   68.9939   66.5183 C.3      78      M_A    0.0000
    548 C         214.8224   68.1707   67.1041 C.3      78      M_A    0.0000
    549 O         215.3262   67.2558   66.1320 O.3      78      M_A    0.0000
    550 H         213.1786   68.4205   65.7290 H        78      M_A    0.0000
    551 H         214.0694   69.8966   66.0345 H        78      M_A    0.0000
    552 H         214.4541   67.5609   67.9389 H        78      M_A    0.0000
    553 H         215.6196   68.8064   67.5159 H        78      M_A    0.0000
    554 C         216.2515   66.3502   66.6925 C.3      79      M_A    0.0000
    555 C         217.6184   66.4484   66.0223 C.3      79      M_A    0.0000
    556 O         218.6284   65.9010   66.8686 O.3      79      M_A    0.0000
    557 H         216.3518   66.5501   67.7661 H        79      M_A    0.0000
    558 H         215.8598   65.3299   66.6108 H        79      M_A    0.0000
    559 H         217.8840   67.5021   65.8679 H        79      M_A    0.0000
    560 H         217.6243   65.9808   65.0271 H        79      M_A    0.0000
    561 C         218.1694   64.7645   67.5671 C.3      80      M_A    0.0000
    562 C         219.1405   63.5942   67.4465 C.3      80      M_A    0.0000
    563 O         219.5720   63.1700   68.7387 O.3      80      M_A    0.0000
    564 H         218.0285   65.0195   68.6244 H        80      M_A    0.0000
    565 H         217.1805   64.4790   67.1911 H        80      M_A    0.0000
    566 H         220.0434   63.9117   66.9094 H        80      M_A    0.0000
    567 H         218.7142   62.7627   66.8668 H        80      M_A    0.0000
    568 C         220.6118   62.2198   68.6598 C.3      81      M_A    0.0000
    569 C         220.6351   61.5154   67.3068 C.3      81      M_A    0.0000
    570 O         221.9619   61.1021   66.9834 O.3      81      M_A    0.0000
    571 H         221.5735   62.7174   68.8332 H        81      M_A    0.0000
    572 H         220.5005   61.4881   69.4681 H        81      M_A    0.0000
    573 H         220.3289   62.2132   66.5170 H        81      M_A    0.0000
    574 H         219.9264   60.6756   67.2669 H        81      M_A    0.0000
    575 C         222.4507   60.1432   67.8955 C.3      82      M_A    0.0000
    576 C         223.8532   59.6712   67.5249 C.3      82      M_A    0.0000
    577 O         224.4124   58.8934   68.5823 O.3      82      M_A    0.0000
    578 H         222.4605   60.5726   68.9045 H        82      M_A    0.0000
    579 H         221.7610   59.2926   67.9362 H        82      M_A    0.0000
    580 H         224.5163   60.5359   67.3950 H        82      M_A    0.0000
    581 H         223.8661   59.1274   66.5692 H        82      M_A    0.0000
    582 C         225.3584   57.9615   68.1057 C.3      83      M_A    0.0000
    583 C         226.2578   58.5653   67.0317 C.3      83      M_A    0.0000
    584 O         227.5893   58.0688   67.1604 O.3      83      M_A    0.0000
    585 H         225.9711   57.6047   68.9423 H        83      M_A    0.0000
    586 H         224.8380   57.0796   67.7150 H        83      M_A    0.0000
    587 H         226.3206   59.6528   67.1649 H        83      M_A    0.0000
    588 H         225.8589   58.4019   66.0200 H        83      M_A    0.0000
    589 C         227.6283   56.8446   67.8604 C.3      84      M_A    0.0000
    590 C         228.7997   55.9742   67.4158 C.3      84      M_A    0.0000
    591 O         229.2792   55.1896   68.5068 O.3      84      M_A    0.0000
    592 H         227.7034   57.0427   68.9363 H        84      M_A    0.0000
    593 H         226.6817   56.3112   67.7171 H        84      M_A    0.0000
    594 H         229.6381   56.6084   67.1008 H        84      M_A    0.0000
    595 H         228.5433   55.3498   66.5477 H        84      M_A    0.0000
    596 C         230.0949   54.1247   68.0698 C.3      85      M_A    0.0000
    597 C         231.0807   54.5698   66.9941 C.3      85      M_A    0.0000
    598 O         232.3628   53.9863   67.2214 O.3      85      M_A    0.0000
    599 H         230.6435   53.7118   68.9250 H        85      M_A    0.0000
    600 H         229.4639   53.3109   67.6948 H        85      M_A    0.0000
    601 H         231.2238   55.6567   67.0451 H        85      M_A    0.0000
    602 H         230.7102   54.3557   65.9812 H        85      M_A    0.0000
    603 C         232.2606   52.6599   67.6912 C.3      86      M_A    0.0000
    604 C         233.5674   51.8931   67.5134 C.3      86      M_A    0.0000
    605 O         233.6624   50.8419   68.4735 O.3      86      M_A    0.0000
    606 H         231.9800   52.6699   68.7513 H        86      M_A    0.0000
    607 H         231.4448   52.1485   67.1678 H        86      M_A    0.0000
    608 H         234.4197   52.5587   67.7004 H        86      M_A    0.0000
    609 H         233.6892   51.5184   66.4868 H        86      M_A    0.0000
    610 C         235.0031   50.5476   68.7996 C.3      87      M_A    0.0000
    611 C         235.5865   49.4742   67.8860 C.3      87      M_A    0.0000
    612 O         237.0059   49.4227   68.0215 O.3      87      M_A    0.0000
    613 H         235.6046   51.4616   68.7259 H        87      M_A    0.0000
    614 H         235.0634   50.2302   69.8468 H        87      M_A    0.0000
    615 H         235.3864   49.7272   66.8370 H        87      M_A    0.0000
    616 H         235.1255   48.4908   68.0584 H        87      M_A    0.0000
    617 C         237.4022   48.5869   69.0867 C.3      88      M_A    0.0000
    618 C         238.2959   47.4460   68.6103 C.3      88      M_A    0.0000
    619 O         239.4485   47.3350   69.4440 O.3      88      M_A    0.0000
    620 H         237.9337   49.1827   69.8385 H        88      M_A    0.0000
    621 H         236.5133   48.1896   69.5898 H        88      M_A    0.0000
    622 H         238.6665   47.6588   67.5994 H        88      M_A    0.0000
    623 H         237.7492   46.4943   68.5433 H        88      M_A    0.0000
    624 C         239.8995   46.0019   69.5422 C.3      89      M_A    0.0000
    625 C         240.7635   45.6060   68.3488 C.3      89      M_A    0.0000
    626 O         241.8561   44.7925   68.7732 O.3      89      M_A    0.0000
    627 H         240.4723   45.8788   70.4693 H        89      M_A    0.0000
    628 H         239.0381   45.3299   69.6282 H        89      M_A    0.0000
    629 H         241.2052   46.5017   67.8938 H        89      M_A    0.0000
    630 H         240.1757   45.1175   67.5582 H        89      M_A    0.0000
    631 C         242.4670   44.1262   67.6900 C.3      90      M_A    0.0000
    632 C         243.6313   43.2521   68.1456 C.3      90      M_A    0.0000
    633 O         243.8757   42.2144   67.1973 O.3      90      M_A    0.0000
    634 H         241.7212   43.5084   67.1754 H        90      M_A    0.0000
    635 H         242.8088   44.8624   66.9538 H        90      M_A    0.0000
    636 H         243.3770   42.7531   69.0893 H        90      M_A    0.0000
    637 H         244.5372   43.8429   68.3445 H        90      M_A    0.0000
    638 C         245.2008   41.7359   67.2717 C.3      91      M_A    0.0000
    639 C         245.6957   41.6583   68.7126 C.3      91      M_A    0.0000
    640 O         246.4149   40.4448   68.9274 O.3      91      M_A    0.0000
    641 H         245.2558   40.7432   66.8087 H        91      M_A    0.0000
    642 H         245.8568   42.3825   66.6780 H        91      M_A    0.0000
    643 H         244.8410   41.6354   69.4006 H        91      M_A    0.0000
    644 H         246.2917   42.5392   68.9919 H        91      M_A    0.0000
    645 C         247.4147   40.2468   67.9519 C.3      92      M_A    0.0000
    646 C         248.4030   39.1606   68.3652 C.3      92      M_A    0.0000
    647 O         249.1029   38.6644   67.2251 O.3      92      M_A    0.0000
    648 H         246.9448   39.9749   66.9991 H        92      M_A    0.0000
    649 H         247.9406   41.1910   67.7705 H        92      M_A    0.0000
    650 H         247.8622   38.3056   68.7906 H        92      M_A    0.0000
    651 H         249.0938   39.5076   69.1472 H        92      M_A    0.0000
    652 C         250.1809   37.8314   67.5917 C.3      93      M_A    0.0000
    653 C         249.7273   36.6715   68.4725 C.3      93      M_A    0.0000
    654 O         250.6435   35.5823   68.3723 O.3      93      M_A    0.0000
    655 H         250.6633   37.4413   66.6874 H        93      M_A    0.0000
    656 H         250.9432   38.4260   68.1078 H        93      M_A    0.0000
    657 H         248.7589   36.2924   68.1218 H        93      M_A    0.0000
    658 H         249.5763   36.9812   69.5168 H        93      M_A    0.0000
    659 C         251.9698   35.9854   68.6345 C.3      94      M_A    0.0000
    660 C         252.9552   34.8316   68.4759 C.3      94      M_A    0.0000
    661 O         254.1920   35.3028   67.9430 O.3      94      M_A    0.0000
    662 H         252.2437   36.8006   67.9540 H        94      M_A    0.0000
    663 H         252.0319   36.4028   69.6459 H        94      M_A    0.0000
    664 H         252.5654   34.1042   67.7524 H        94      M_A    0.0000
    665 H         253.1010   34.2816   69.4168 H        94      M_A    0.0000
    666 C         255.0574   34.2410   67.6054 C.3      95      M_A    0.0000
    667 C         255.3279   33.3288   68.7979 C.3      95      M_A    0.0000
    668 O         256.6080   32.7114   68.6721 O.3      95      M_A    0.0000
    669 H         254.6166   33.6582   66.7876 H        95      M_A    0.0000
    670 H         255.9978   34.6459   67.2147 H        95      M_A    0.0000
    671 H         254.5936   32.5135   68.8188 H        95      M_A    0.0000
    672 H         255.2248   33.8601   69.7551 H        95      M_A    0.0000
    673 C         257.3960   33.3326   67.6804 C.3      96      M_A    0.0000
    674 C         256.7795   34.6448   67.2057 C.3      96      M_A    0.0000
    675 O         257.4805   35.7551   67.7640 O.3      96      M_A    0.0000
    676 H         258.4007   33.5197   68.0781 H        96      M_A    0.0000
    677 H         257.5285   32.6468   66.8360 H        96      M_A    0.0000
    678 H         255.7449   34.7225   67.5634 H        96      M_A    0.0000
    679 H         256.7309   34.7045   66.1087 H        96      M_A    0.0000
    680 C         256.7224   36.9430   67.6966 C.3      97      M_A    0.0000
    681 C         255.7309   37.0494   68.8511 C.3      97      M_A    0.0000
    682 O         255.4467   38.4177   69.1389 O.3      97      M_A    0.0000
    683 H         257.3978   37.8069   67.7096 H        97      M_A    0.0000
    684 H         256.1954   36.9864   66.7367 H        97      M_A    0.0000
    685 H         256.1727   36.6284   69.7631 H        97      M_A    0.0000
    686 H         254.8130   36.4747   68.6605 H        97      M_A    0.0000
    687 C         255.1271   39.1446   67.9727 C.3      98      M_A    0.0000
    688 C         253.6331   39.0991   67.6676 C.3      98      M_A    0.0000
    689 O         253.1000   40.4204   67.5915 O.3      98      M_A    0.0000
    690 H         255.4473   40.1864   68.0941 H        98      M_A    0.0000
    691 H         255.7007   38.7492   67.1268 H        98      M_A    0.0000
    692 H         253.0997   38.5986   68.4858 H        98      M_A    0.0000
    693 H         253.4153   38.5197   66.7587 H        98      M_A    0.0000
    694 C         253.1322   41.0729   68.8419 C.3      99      M_A    0.0000
    695 C         251.8263   41.8059   69.1330 C.3      99      M_A    0.0000
    696 O         252.0443   43.2155   69.1705 O.3      99      M_A    0.0000
    697 H         253.3261   40.3370   69.6316 H        99      M_A    0.0000
    698 H         253.9754   41.7724   68.8677 H        99      M_A    0.0000
    699 H         251.4538   41.5255   70.1265 H        99      M_A    0.0000
    700 H         251.0340   41.5357   68.4199 H        99      M_A    0.0000
    701 C         250.9507   43.9307   68.6386 C.3     100      M_A    0.0000
    702 C         250.7753   43.6709   67.1456 C.3     100      M_A    0.0000
    703 O         249.4313   43.9388   66.7482 O.3     100      M_A    0.0000
    704 H         250.0358   43.6468   69.1725 H       100      M_A    0.0000
    705 H         251.0889   45.0018   68.8251 H       100      M_A    0.0000
    706 H         250.9554   42.6106   66.9272 H       100      M_A    0.0000
    707 H         251.4987   44.2367   66.5408 H       100      M_A    0.0000
    708 C         249.2386   45.2997   66.4303 C.3     101      M_A    0.0000
    709 C         247.7652   45.6914   66.4834 C.3     101      M_A    0.0000
    710 O         247.6181   47.0040   67.0230 O.3     101      M_A    0.0000
    711 H         249.8111   45.9213   67.1293 H       101      M_A    0.0000
    712 H         249.6516   45.5049   65.4362 H       101      M_A    0.0000
    713 H         247.2237   45.0180   67.1600 H       101      M_A    0.0000
    714 H         247.2781   45.5982   65.5019 H       101      M_A    0.0000
    715 C         246.4227   47.6179   66.5935 C.3     102      M_A    0.0000
    716 C         245.3527   47.5987   67.6807 C.3     102      M_A    0.0000
    717 O         244.6063   48.8146   67.6662 O.3     102      M_A    0.0000
    718 H         246.6308   48.6535   66.2989 H       102      M_A    0.0000
    719 H         246.0574   47.1150   65.6908 H       102      M_A    0.0000
    720 H         245.8256   47.5395   68.6693 H       102      M_A    0.0000
    721 H         244.6983   46.7187   67.5997 H       102      M_A    0.0000
    722 C         243.3133   48.6311   67.1324 C.3     103      M_A    0.0000
    723 C         243.0030   49.6459   66.0364 C.3     103      M_A    0.0000
    724 O         242.3330   49.0130   64.9472 O.3     103      M_A    0.0000
    725 H         243.2267   47.6148   66.7295 H       103      M_A    0.0000
    726 H         242.5724   48.7010   67.9369 H       103      M_A    0.0000
    727 H         243.9371   50.0528   65.6286 H       103      M_A    0.0000
    728 H         242.4344   50.5056   66.4194 H       103      M_A    0.0000
    729 C         241.0264   49.5150   64.7708 C.3     104      M_A    0.0000
    730 C         240.4279   49.0822   63.4360 C.3     104      M_A    0.0000
    731 O         239.0026   49.0933   63.5024 O.3     104      M_A    0.0000
    732 H         240.3885   49.1659   65.5917 H       104      M_A    0.0000
    733 H         241.0417   50.6083   64.8446 H       104      M_A    0.0000
    734 H         240.7177   48.0471   63.2146 H       104      M_A    0.0000
    735 H         240.8008   49.6915   62.6000 H       104      M_A    0.0000
    736 C         238.4245   49.5668   62.3058 C.3     105      M_A    0.0000
    737 C         236.9747   49.9966   62.5077 C.3     105      M_A    0.0000
    738 O         236.6975   51.1798   61.7600 O.3     105      M_A    0.0000
    739 H         239.0110   50.4130   61.9281 H       105      M_A    0.0000
    740 H         238.4874   48.7887   61.5366 H       105      M_A    0.0000
    741 H         236.8037   50.2512   63.5614 H       105      M_A    0.0000
    742 H         236.2680   49.1890   62.2678 H       105      M_A    0.0000
    743 C         235.7906   52.0259   62.4324 C.3     106      M_A    0.0000
    744 C         234.5814   52.3641   61.5660 C.3     106      M_A    0.0000
    745 O         233.5021   52.8270   62.3764 O.3     106      M_A    0.0000
    746 H         235.4574   51.5404   63.3576 H       106      M_A    0.0000
    747 H         236.3060   52.9424   62.7413 H       106      M_A    0.0000
    748 H         234.2201   51.4601   61.0594 H       106      M_A    0.0000
    749 H         234.8311   53.0827   60.7720 H       106      M_A    0.0000
    750 C         232.9730   54.0454   61.9010 C.3     107      M_A    0.0000
    751 C         231.5293   54.2501   62.3493 C.3     107      M_A    0.0000
    752 O         231.1241   55.5993   62.1227 O.3     107      M_A    0.0000
    753 H         233.5923   54.8760   62.2605 H       107      M_A    0.0000
    754 H         233.0394   54.0709   60.8074 H       107      M_A    0.0000
    755 H         231.4463   54.0813   63.4306 H       107      M_A    0.0000
    756 H         230.8441   53.5342   61.8728 H       107      M_A    0.0000
    757 C         229.8946   55.8912   62.7498 C.3     108      M_A    0.0000
    758 C         228.7757   56.1013   61.7343 C.3     108      M_A    0.0000
    759 O         227.5868   56.5432   62.3877 O.3     108      M_A    0.0000
    760 H         229.6282   55.0714   63.4279 H       108      M_A    0.0000
    761 H         230.0079   56.7800   63.3809 H       108      M_A    0.0000
    762 H         228.5255   55.1481   61.2514 H       108      M_A    0.0000
    763 H         229.0746   56.7858   60.9272 H       108      M_A    0.0000
    764 C         226.9621   57.5961   61.6866 C.3     109      M_A    0.0000
    765 C         225.5248   57.8119   62.1500 C.3     109      M_A    0.0000
    766 O         225.2010   59.2015   62.1381 O.3     109      M_A    0.0000
    767 H         227.5376   58.5190   61.8274 H       109      M_A    0.0000
    768 H         226.9880   57.3854   60.6114 H       109      M_A    0.0000
    769 H         225.4134   57.4788   63.1897 H       109      M_A    0.0000
    770 H         224.8083   57.2224   61.5598 H       109      M_A    0.0000
    771 C         223.9157   59.4462   62.6657 C.3     110      M_A    0.0000
    772 C         223.3702   60.8010   62.2251 C.3     110      M_A    0.0000
    773 O         222.0397   60.6643   61.7282 O.3     110      M_A    0.0000
    774 H         223.2327   58.6510   62.3436 H       110      M_A    0.0000
    775 H         223.9524   59.3879   63.7595 H       110      M_A    0.0000
    776 H         223.9704   61.1931   61.3941 H       110      M_A    0.0000
    777 H         223.4296   61.5503   63.0277 H       110      M_A    0.0000
    778 C         221.2305   61.7641   62.0834 C.3     111      M_A    0.0000
    779 C         221.9129   63.0932   61.7752 C.3     111      M_A    0.0000
    780 O         220.9840   64.0067   61.1933 O.3     111      M_A    0.0000
    781 H         220.2780   61.7045   61.5433 H       111      M_A    0.0000
    782 H         220.9782   61.7035   63.1481 H       111      M_A    0.0000
    783 H         222.7046   62.9429   61.0302 H       111      M_A    0.0000
    784 H         222.4025   63.5208   62.6622 H       111      M_A    0.0000
    785 C         219.9678   64.3724   62.1009 C.3     112      M_A    0.0000
    786 C         218.7314   64.9051   61.3835 C.3     112      M_A    0.0000
    787 O         218.4368   66.2320   61.8177 O.3     112      M_A    0.0000
    788 H         219.6945   63.5030   62.7110 H       112      M_A    0.0000
    789 H         220.3548   65.1221   62.8003 H       112      M_A    0.0000
    790 H         217.8569   64.2950   61.6432 H       112      M_A    0.0000
    791 H         218.8325   64.8481   60.2901 H       112      M_A    0.0000
    792 C         217.9365   67.0298   60.7672 C.3     113      M_A    0.0000
    793 C         217.0253   68.1396   61.2823 C.3     113      M_A    0.0000
    794 O         215.9722   68.3907   60.3528 O.3     113      M_A    0.0000
    795 H         218.7746   67.4683   60.2123 H       113      M_A    0.0000
    796 H         217.3990   66.3971   60.0518 H       113      M_A    0.0000
    797 H         217.5898   69.0768   61.3684 H       113      M_A    0.0000
    798 H         216.6369   67.9210   62.2875 H       113      M_A    0.0000
    799 C         215.4777   69.7075   60.4622 C.3     114      M_A    0.0000
    800 C         214.3369   69.8030   61.4705 C.3     114      M_A    0.0000
    801 O         214.1075   71.1631   61.8355 O.3     114      M_A    0.0000
    802 H         216.2919   70.3783   60.7616 H       114      M_A    0.0000
    803 H         215.1459   70.0563   59.4777 H       114      M_A    0.0000
    804 H         214.6103   69.2782   62.3948 H       114      M_A    0.0000
    805 H         213.4199   69.3204   61.1026 H       114      M_A    0.0000
    806 C         212.7724   71.5527   61.5987 C.3     115      M_A    0.0000
    807 C         212.6795   72.9997   61.1244 C.3     115      M_A    0.0000
    808 O         211.4629   73.2122   60.4098 O.3     115      M_A    0.0000
    809 H         212.3273   70.8890   60.8478 H       115      M_A    0.0000
    810 H         212.1834   71.4129   62.5122 H       115      M_A    0.0000
    811 H         213.4923   73.2147   60.4191 H       115      M_A    0.0000
    812 H         212.7944   73.7134   61.9530 H       115      M_A    0.0000
    813 C         211.0387   74.5557   60.4823 C.3     116      M_A    0.0000
    814 C         209.5373   74.6899   60.2473 C.3     116      M_A    0.0000
    815 O         209.0259   75.8314   60.9337 O.3     116      M_A    0.0000
    816 H         211.2962   74.9660   61.4662 H       116      M_A    0.0000
    817 H         211.5936   75.1543   59.7510 H       116      M_A    0.0000
    818 H         209.0145   73.8199   60.6648 H       116      M_A    0.0000
    819 H         209.2881   74.7138   59.1766 H       116      M_A    0.0000
    820 C         208.1431   76.5786   60.1258 C.3     117      M_A    0.0000
    821 C         207.2309   77.4731   60.9595 C.3     117      M_A    0.0000
    822 O         207.1248   78.7666   60.3666 O.3     117      M_A    0.0000
    823 H         208.7221   77.1925   59.4254 H       117      M_A    0.0000
    824 H         207.5472   75.8970   59.5083 H       117      M_A    0.0000
    825 H         207.6659   77.6258   61.9554 H       117      M_A    0.0000
    826 H         206.2432   77.0179   61.1218 H       117      M_A    0.0000
    827 C         206.9623   79.7777   61.3370 C.3     118      M_A    0.0000
    828 C         205.9172   80.8058   60.9152 C.3     118      M_A    0.0000
    829 O         205.4501   81.5350   62.0492 O.3     118      M_A    0.0000
    830 H         206.6686   79.3230   62.2907 H       118      M_A    0.0000
    831 H         207.9257   80.2670   61.5199 H       118      M_A    0.0000
    832 H         205.0408   80.2968   60.4943 H       118      M_A    0.0000
    833 H         206.2918   81.4753   60.1274 H       118      M_A    0.0000
    834 C         205.5694   82.9284   61.8636 C.3     119      M_A    0.0000
    835 C         204.2564   83.6525   62.1446 C.3     119      M_A    0.0000
    836 O         204.4954   85.0356   62.4007 O.3     119      M_A    0.0000
    837 H         206.3539   83.3177   62.5237 H       119      M_A    0.0000
    838 H         205.9061   83.1335   60.8411 H       119      M_A    0.0000
    839 H         203.7929   83.2468   63.0529 H       119      M_A    0.0000
    840 H         203.5252   83.5091   61.3359 H       119      M_A    0.0000
    841 C         203.3109   85.7976   62.3192 C.3     120      M_A    0.0000
    842 C         202.1605   85.1402   63.0754 C.3     120      M_A    0.0000
    843 O         201.2419   86.1277   63.5409 O.3     120      M_A    0.0000
    844 H         203.4941   86.7998   62.7250 H       120      M_A    0.0000
    845 H         203.0412   85.9427   61.2670 H       120      M_A    0.0000
    846 H         202.5434   84.6305   63.9687 H       120      M_A    0.0000
    847 H         201.6583   84.3694   62.4730 H       120      M_A    0.0000
    848 C         201.4779   87.3860   62.9482 C.3     121      M_A    0.0000
    849 C         200.1767   88.1152   62.6282 C.3     121      M_A    0.0000
    850 O         200.2942   89.5029   62.9389 O.3     121      M_A    0.0000
    851 H         202.0873   87.9981   63.6240 H       121      M_A    0.0000
    852 H         202.0748   87.2554   62.0385 H       121      M_A    0.0000
    853 H         199.3660   87.7265   63.2575 H       121      M_A    0.0000
    854 H         199.8606   87.9569   61.5870 H       121      M_A    0.0000
    855 C         199.0560   90.1711   62.8359 C.3     122      M_A    0.0000
    856 C         198.4364   90.0071   61.4516 C.3     122      M_A    0.0000
    857 O         197.1504   90.6236   61.4054 O.3     122      M_A    0.0000
    858 H         198.3682   89.7823   63.5964 H       122      M_A    0.0000
    859 H         199.1934   91.2333   63.0681 H       122      M_A    0.0000
    860 H         198.2753   88.9427   61.2380 H       122      M_A    0.0000
    861 H         199.0967   90.3837   60.6570 H       122      M_A    0.0000
    862 C         197.0415   91.6821   62.3317 C.3     123      M_A    0.0000
    863 C         197.0330   93.0420   61.6404 C.3     123      M_A    0.0000
    864 O         196.3494   94.0040   62.4423 O.3     123      M_A    0.0000
    865 H         196.1224   91.5602   62.9173 H       123      M_A    0.0000
    866 H         197.8670   91.6255   63.0503 H       123      M_A    0.0000
    867 H         196.4774   92.9778   60.6962 H       123      M_A    0.0000
    868 H         198.0469   93.3777   61.3784 H       123      M_A    0.0000
    869 C         196.7123   95.3244   62.1029 C.3     124      M_A    0.0000
    870 C         196.9415   95.4818   60.6030 C.3     124      M_A    0.0000
    871 O         196.2177   96.6056   60.1039 O.3     124      M_A    0.0000
    872 H         195.9248   96.0138   62.4302 H       124      M_A    0.0000
    873 H         197.6132   95.6100   62.6578 H       124      M_A    0.0000
    874 H         196.5523   94.6042   60.0713 H       124      M_A    0.0000
    875 H         198.0107   95.5433   60.3535 H       124      M_A    0.0000
    876 C         196.2005   97.6719   61.0274 C.3     125      M_A    0.0000
    877 C         195.2703   98.7951   60.5797 C.3     125      M_A    0.0000
    878 O         194.4436   99.2185   61.6628 O.3     125      M_A    0.0000
    879 H         195.8827   97.2987   62.0084 H       125      M_A    0.0000
    880 H         197.2188   98.0529   61.1649 H       125      M_A    0.0000
    881 H         194.5913   98.4290   59.7990 H       125      M_A    0.0000
    882 H         195.8230   99.6363   60.1369 H       125      M_A    0.0000
    883 C         193.9006  100.5013   61.4392 C.3     126      M_A    0.0000
    884 C         192.3791  100.4628   61.3348 C.3     126      M_A    0.0000
    885 O         191.8343  101.7687   61.5182 O.3     126      M_A    0.0000
    886 H         194.1976  101.1697   62.2563 H       126      M_A    0.0000
    887 H         194.3341  100.9279   60.5275 H       126      M_A    0.0000
    888 H         191.9651   99.8409   62.1387 H       126      M_A    0.0000
    889 H         192.0418  100.0102   60.3911 H       126      M_A    0.0000
    890 C         190.4273  101.7418   61.6177 C.3     127      M_A    0.0000
    891 C         189.7582  102.0686   60.2863 C.3     127      M_A    0.0000
    892 O         188.3875  101.6728   60.3075 O.3     127      M_A    0.0000
    893 H         190.1054  100.7506   61.9590 H       127      M_A    0.0000
    894 H         190.1019  102.4474   62.3906 H       127      M_A    0.0000
    895 H         190.2317  101.4949   59.4794 H       127      M_A    0.0000
    896 H         189.8712  103.1287   60.0172 H       127      M_A    0.0000
    897 C         187.6126  102.4125   59.3895 C.3     128      M_A    0.0000
    898 C         187.4964  103.8780   59.7968 C.3     128      M_A    0.0000
    899 O         186.7181  104.5997   58.8432 O.3     128      M_A    0.0000
    900 H         188.0636  102.3414   58.3923 H       128      M_A    0.0000
    901 H         186.6177  101.9610   59.3037 H       128      M_A    0.0000
    902 H         188.4896  104.3449   59.8001 H       128      M_A    0.0000
    903 H         187.0994  103.9925   60.8159 H       128      M_A    0.0000
    904 C         186.2606  105.8296   59.3610 C.3     129      M_A    0.0000
    905 C         185.3507  106.5565   58.3757 C.3     129      M_A    0.0000
    906 O         184.5682  107.5392   59.0524 O.3     129      M_A    0.0000
    907 H         185.7212  105.6515   60.2990 H       129      M_A    0.0000
    908 H         187.1194  106.4587   59.6215 H       129      M_A    0.0000
    909 H         184.6391  105.8485   57.9320 H       129      M_A    0.0000
    910 H         185.9143  106.9918   57.5378 H       129      M_A    0.0000
    911 C         184.3041  108.6565   58.2324 C.3     130      M_A    0.0000
    912 C         182.9663  109.3060   58.5726 C.3     130      M_A    0.0000
    913 O         182.9891  110.6944   58.2443 O.3     130      M_A    0.0000
    914 H         185.1105  109.3908   58.3470 H       130      M_A    0.0000
    915 H         184.3220  108.3503   57.1804 H       130      M_A    0.0000
    916 H         182.7872  109.2484   59.6538 H       130      M_A    0.0000
    917 H         182.1229  108.7885   58.0931 H       130      M_A    0.0000
    918 C         181.7460  111.3136   58.4923 C.3     131      M_A    0.0000
    919 C         181.6312  112.6595   57.7833 C.3     131      M_A    0.0000
    920 O         180.3048  113.1721   57.8999 O.3     131      M_A    0.0000
    921 H         180.9370  110.6516   58.1605 H       131      M_A    0.0000
    922 H         181.6092  111.4392   59.5724 H       131      M_A    0.0000
    923 H         181.8192  112.5334   56.7095 H       131      M_A    0.0000
    924 H         182.3791  113.3805   58.1439 H       131      M_A    0.0000
    925 C         180.2952  114.5739   58.0589 C.3     132      M_A    0.0000
    926 C         181.1788  115.2678   57.0269 C.3     132      M_A    0.0000
    927 O         180.5290  116.4310   56.5165 O.3     132      M_A    0.0000
    928 H         179.2663  114.9431   57.9715 H       132      M_A    0.0000
    929 H         180.6222  114.8290   59.0733 H       132      M_A    0.0000
    930 H         181.3418  114.6044   56.1680 H       132      M_A    0.0000
    931 H         182.1755  115.5019   57.4282 H       132      M_A    0.0000
    932 C         180.2890  117.3852   57.5275 C.3     133      M_A    0.0000
    933 C         179.8222  118.7179   56.9502 C.3     133      M_A    0.0000
    934 O         178.8122  119.2927   57.7781 O.3     133      M_A    0.0000
    935 H         179.5326  116.9983   58.2209 H       133      M_A    0.0000
    936 H         181.1993  117.5254   58.1213 H       133      M_A    0.0000
    937 H         179.3606  118.5583   55.9674 H       133      M_A    0.0000
    938 H         180.6590  119.4126   56.7878 H       133      M_A    0.0000
    939 C         178.7121  120.6877   57.5931 C.3     134      M_A    0.0000
    940 C         177.7384  121.0430   56.4738 C.3     134      M_A    0.0000
    941 O         177.1440  122.3172   56.7167 O.3     134      M_A    0.0000
    942 H         178.3851  121.1564   58.5291 H       134      M_A    0.0000
    943 H         179.7047  121.1004   57.3796 H       134      M_A    0.0000
    944 H         176.9146  120.3183   56.4512 H       134      M_A    0.0000
    945 H         178.2145  120.9985   55.4836 H       134      M_A    0.0000
    946 C         176.5214  122.8354   55.5616 C.3     135      M_A    0.0000
    947 C         176.5494  124.3605   55.5380 C.3     135      M_A    0.0000
    948 O         177.5818  124.8261   54.6702 O.3     135      M_A    0.0000
    949 H         177.0249  122.4432   54.6698 H       135      M_A    0.0000
    950 H         175.4886  122.4727   55.5091 H       135      M_A    0.0000
    951 H         176.7904  124.7453   56.5371 H       135      M_A    0.0000
    952 H         175.5714  124.7868   55.2719 H       135      M_A    0.0000
    953 C         178.1809  126.0085   55.1533 C.3     136      M_A    0.0000
    954 C         179.0774  125.7389   56.3577 C.3     136      M_A    0.0000
    955 O         180.0973  126.7323   56.4516 O.3     136      M_A    0.0000
    956 H         178.7690  126.4721   54.3521 H       136      M_A    0.0000
    957 H         177.4013  126.7334   55.4135 H       136      M_A    0.0000
    958 H         179.5937  124.7787   56.2318 H       136      M_A    0.0000
    959 H         178.5012  125.6582   57.2908 H       136      M_A    0.0000
    960 C         179.6228  128.0090   56.0841 C.3     137      M_A    0.0000
    961 C         180.4610  129.1247   56.7005 C.3     137      M_A    0.0000
    962 O         180.6050  130.2057   55.7804 O.3     137      M_A    0.0000
    963 H         179.6332  128.1005   54.9913 H       137      M_A    0.0000
    964 H         178.5739  128.1099   56.3854 H       137      M_A    0.0000
    965 H         181.4750  128.7595   56.9074 H       137      M_A    0.0000
    966 H         180.0531  129.4625   57.6642 H       137      M_A    0.0000
    967 C         180.6014  131.4560   56.4339 C.3     138      M_A    0.0000
    968 C         182.0161  131.9668   56.6887 C.3     138      M_A    0.0000
    969 O         182.0911  133.3699   56.4404 O.3     138      M_A    0.0000
    970 H         180.0506  132.1832   55.8252 H       138      M_A    0.0000
    971 H         180.0506  131.3737   57.3777 H       138      M_A    0.0000
    972 H         182.7162  131.4926   55.9892 H       138      M_A    0.0000
    973 H         182.3706  131.7129   57.6982 H       138      M_A    0.0000
    974 C         181.9030  133.6729   55.0754 C.3     139      M_A    0.0000
    975 C         181.7201  135.1700   54.8467 C.3     139      M_A    0.0000
    976 O         180.6307  135.4084   53.9566 O.3     139      M_A    0.0000
    977 H         182.7656  133.3146   54.5008 H       139      M_A    0.0000
    978 H         181.0363  133.1208   54.6945 H       139      M_A    0.0000
    979 H         182.6117  135.5854   54.3600 H       139      M_A    0.0000
    980 H         181.6011  135.7200   55.7915 H       139      M_A    0.0000
    981 C         180.5016  136.7767   53.6386 C.3     140      M_A    0.0000
    982 C         180.2665  137.6284   54.8823 C.3     140      M_A    0.0000
    983 O         179.8299  138.9362   54.5150 O.3     140      M_A    0.0000
    984 H         181.4078  137.1178   53.1238 H       140      M_A    0.0000
    985 H         179.6807  136.9103   52.9249 H       140      M_A    0.0000
    986 H         181.2093  137.7606   55.4283 H       140      M_A    0.0000
    987 H         179.5691  137.1490   55.5845 H       140      M_A    0.0000
    988 C         179.2743  139.6315   55.6096 C.3     141      M_A    0.0000
    989 C         177.8733  140.1499   55.3002 C.3     141      M_A    0.0000
    990 O         177.0352  140.0360   56.4493 O.3     141      M_A    0.0000
    991 H         179.2378  138.9677   56.4818 H       141      M_A    0.0000
    992 H         179.9341  140.4607   55.8889 H       141      M_A    0.0000
    993 H         177.4106  139.5329   54.5194 H       141      M_A    0.0000
    994 H         177.8909  141.1777   54.9099 H       141      M_A    0.0000
    995 C         176.2646  141.1997   56.6552 C.3     142      M_A    0.0000
    996 C         174.9801  140.9011   57.4219 C.3     142      M_A    0.0000
    997 O         174.9571  141.6201   58.6542 O.3     142      M_A    0.0000
    998 H         176.8600  141.9377   57.2061 H       142      M_A    0.0000
    999 H         176.0326  141.6603   55.6882 H       142      M_A    0.0000
   1000 H         174.9414  139.8365   57.6860 H       142      M_A    0.0000
   1001 H         174.0833  141.1008   56.8177 H       142      M_A    0.0000
   1002 C         173.9642  142.6223   58.6593 C.3     143      M_A    0.0000
   1003 C         174.3099  143.7581   59.6173 C.3     143      M_A    0.0000
   1004 O         173.7209  144.9799   59.1742 O.3     143      M_A    0.0000
   1005 H         173.8429  143.0197   57.6444 H       143      M_A    0.0000
   1006 H         172.9985  142.1788   58.9272 H       143      M_A    0.0000
   1007 H         175.3947  143.9241   59.6241 H       143      M_A    0.0000
   1008 H         174.0282  143.5233   60.6540 H       143      M_A    0.0000
   1009 C         172.4256  144.7798   58.6521 C.3     144      M_A    0.0000
   1010 C         171.5442  146.0116   58.8344 C.3     144      M_A    0.0000
   1011 O         170.5237  146.0454   57.8378 O.3     144      M_A    0.0000
   1012 H         172.4971  144.5317   57.5863 H       144      M_A    0.0000
   1013 H         171.9675  143.9090   59.1347 H       144      M_A    0.0000
   1014 H         172.1409  146.9220   58.6950 H       144      M_A    0.0000
   1015 H         171.1241  146.0715   59.8489 H       144      M_A    0.0000
   1016 C         169.4722  145.1519   58.1318 C.3     145      M_A    0.0000
   1017 C         168.3383  145.2568   57.1166 C.3     145      M_A    0.0000
   1018 O         167.3018  144.3276   57.4301 O.3     145      M_A    0.0000
   1019 H         169.8598  144.1262   58.1474 H       145      M_A    0.0000
   1020 H         169.0975  145.3484   59.1428 H       145      M_A    0.0000
   1021 H         168.7042  144.9846   56.1184 H       145      M_A    0.0000
   1022 H         167.9528  146.2832   57.0335 H       145      M_A    0.0000
   1023 C         166.1051  144.6242   56.7443 C.3     146      M_A    0.0000
   1024 C         165.4850  145.9323   57.2255 C.3     146      M_A    0.0000
   1025 O         164.3244  146.2455   56.4569 O.3     146      M_A    0.0000
   1026 H         166.3080  144.6858   55.6684 H       146      M_A    0.0000
   1027 H         165.3967  143.7977   56.8710 H       146      M_A    0.0000
   1028 H         166.1895  146.7593   57.0700 H       146      M_A    0.0000
   1029 H         165.2663  145.9131   58.3030 H       146      M_A    0.0000
   1030 C         163.5077  147.1976   57.1025 C.3     147      M_A    0.0000
   1031 C         164.3088  148.0785   58.0561 C.3     147      M_A    0.0000
   1032 O         163.7212  149.3754   58.1483 O.3     147      M_A    0.0000
   1033 H         163.0134  147.8233   56.3496 H       147      M_A    0.0000
   1034 H         162.7044  146.6839   57.6427 H       147      M_A    0.0000
   1035 H         165.3231  148.2273   57.6644 H       147      M_A    0.0000
   1036 H         164.4265  147.6140   59.0459 H       147      M_A    0.0000
   1037 C         162.4059  149.3216   58.6558 C.3     148      M_A    0.0000
   1038 C         161.9606  150.6668   59.2209 C.3     148      M_A    0.0000
   1039 O         160.5979  150.9220   58.8835 O.3     148      M_A    0.0000
   1040 H         161.7204  149.0114   57.8580 H       148      M_A    0.0000
   1041 H         162.3430  148.5452   59.4266 H       148      M_A    0.0000
   1042 H         162.5468  151.4756   58.7663 H       148      M_A    0.0000
   1043 H         162.1308  150.7354   60.3050 H       148      M_A    0.0000
   1044 C         160.0186  151.8886   59.7322 C.3     149      M_A    0.0000
   1045 C         158.6851  152.3935   59.1898 C.3     149      M_A    0.0000
   1046 O         157.6779  152.3211   60.1978 O.3     149      M_A    0.0000
   1047 H         159.8714  151.4562   60.7292 H       149      M_A    0.0000
   1048 H         160.7161  152.7234   59.8653 H       149      M_A    0.0000
   1049 H         158.3467  151.7476   58.3696 H       149      M_A    0.0000
   1050 H         158.7678  153.4063   58.7695 H       149      M_A    0.0000
   1051 C         156.6206  153.2216   59.9500 C.3     150      M_A    0.0000
   1052 C         156.2884  153.3111   58.4638 C.3     150      M_A    0.0000
   1053 O         154.9435  152.8966   58.2284 O.3     150      M_A    0.0000
   1054 H         155.7322  152.9023   60.5081 H       150      M_A    0.0000
   1055 H         156.8835  154.2108   60.3416 H       150      M_A    0.0000
   1056 H         156.9267  152.6221   57.8961 H       150      M_A    0.0000
   1057 H         156.4817  154.3146   58.0577 H       150      M_A    0.0000
   1058 C         154.2683  153.7746   57.3546 C.3     151      M_A    0.0000
   1059 C         152.7720  153.8266   57.6473 C.3     151      M_A    0.0000
   1060 O         152.2851  155.1614   57.5165 O.3     151      M_A    0.0000
   1061 H         154.6972  154.7799   57.4457 H       151      M_A    0.0000
   1062 H         154.4430  153.4648   56.3180 H       151      M_A    0.0000
   1063 H         152.5843  153.5310   58.6874 H       151      M_A    0.0000
   1064 H         152.2046  153.1234   57.0205 H       151      M_A    0.0000
   1065 C         151.2586  155.4395   58.4434 C.3     152      M_A    0.0000
   1066 C         150.3806  156.6002   57.9860 C.3     152      M_A    0.0000
   1067 O         149.2186  156.6995   58.8080 O.3     152      M_A    0.0000
   1068 H         150.6420  154.5434   58.5834 H       152      M_A    0.0000
   1069 H         151.6996  155.6584   59.4225 H       152      M_A    0.0000
   1070 H         150.0210  156.4172   56.9655 H       152      M_A    0.0000
   1071 H         150.9362  157.5485   57.9509 H       152      M_A    0.0000
   1072 C         148.8108  158.0389   58.9819 C.3     153      M_A    0.0000
   1073 C         148.7927  158.8023   57.6613 C.3     153      M_A    0.0000
   1074 O         147.5646  159.5136   57.5141 O.3     153      M_A    0.0000
   1075 H         147.8116  158.0594   59.4336 H       153      M_A    0.0000
   1076 H         149.4762  158.5335   59.6986 H       153      M_A    0.0000
   1077 H         148.8428  158.0975   56.8216 H       153      M_A    0.0000
   1078 H         149.6626  159.4669   57.5573 H       153      M_A    0.0000
   1079 C         147.6901  160.8645   57.9008 C.3     154      M_A    0.0000
   1080 C         146.3412  161.5768   57.9193 C.3     154      M_A    0.0000
   1081 O         145.7448  161.4801   59.2119 O.3     154      M_A    0.0000
   1082 H         148.1489  160.9172   58.8955 H       154      M_A    0.0000
   1083 H         148.3817  161.3764   57.2220 H       154      M_A    0.0000
   1084 H         145.6494  161.0852   57.2235 H       154      M_A    0.0000
   1085 H         146.4220  162.6216   57.5858 H       154      M_A    0.0000
   1086 C         144.8913  160.3614   59.3145 C.3     155      M_A    0.0000
   1087 C         144.4114  160.1435   60.7460 C.3     155      M_A    0.0000
   1088 O         143.0564  160.5677   60.8870 O.3     155      M_A    0.0000
   1089 H         144.0278  160.5005   58.6530 H       155      M_A    0.0000
   1090 H         145.4119  159.4696   58.9475 H       155      M_A    0.0000
   1091 H         145.0007  160.7612   61.4358 H       155      M_A    0.0000
   1092 H         144.5477  159.1024   61.0727 H       155      M_A    0.0000
   1093 C         142.5733  160.3575   62.1957 C.3     156      M_A    0.0000
   1094 C         143.0371  161.4503   63.1538 C.3     156      M_A    0.0000
   1095 O         141.9353  162.2658   63.5498 O.3     156      M_A    0.0000
   1096 H         141.4774  160.3232   62.1779 H       156      M_A    0.0000
   1097 H         142.9004  159.3743   62.5525 H       156      M_A    0.0000
   1098 H         143.7461  162.1164   62.6458 H       156      M_A    0.0000
   1099 H         143.5708  161.0380   64.0223 H       156      M_A    0.0000
   1100 C         142.2422  163.0506   64.6812 C.3     157      M_A    0.0000
   1101 C         141.5410  164.4048   64.6393 C.3     157      M_A    0.0000
   1102 O         140.4283  164.4172   65.5323 O.3     157      M_A    0.0000
   1103 H         141.9480  162.5108   65.5893 H       157      M_A    0.0000
   1104 H         143.3277  163.1858   64.7488 H       157      M_A    0.0000
   1105 H         141.1328  164.5833   63.6363 H       157      M_A    0.0000
   1106 H         142.2339  165.2344   64.8414 H       157      M_A    0.0000
   1107 C         139.3184  165.0903   64.9796 C.3     158      M_A    0.0000
   1108 C         138.6617  164.2813   63.8653 C.3     158      M_A    0.0000
   1109 O         137.2733  164.0955   64.1367 O.3     158      M_A    0.0000
   1110 H         138.5853  165.2929   65.7696 H       158      M_A    0.0000
   1111 H         139.6350  166.0697   64.6033 H       158      M_A    0.0000
   1112 H         139.1038  163.2778   63.8218 H       158      M_A    0.0000
   1113 H         138.8259  164.7328   62.8762 H       158      M_A    0.0000
   1114 C         136.6764  163.1950   63.2294 C.3     159      M_A    0.0000
   1115 C         135.1669  163.1045   63.4304 C.3     159      M_A    0.0000
   1116 O         134.7172  161.7654   63.2289 O.3     159      M_A    0.0000
   1117 H         136.8934  163.5150   62.2031 H       159      M_A    0.0000
   1118 H         137.1354  162.2061   63.3406 H       159      M_A    0.0000
   1119 H         134.6525  163.7181   62.6798 H       159      M_A    0.0000
   1120 H         134.8574  163.4942   64.4109 H       159      M_A    0.0000
   1121 C         133.5723  161.4740   64.0000 C.3     160      M_A    0.0000
   1122 C         132.5787  162.6316   64.0000 C.3     160      M_A    0.0000
   1123 O         131.3080  162.1971   64.4820 O.3     160      M_A    0.0000
   1124 H         133.0881  160.5722   63.6061 H       160      M_A    0.0000
   1125 H         133.8740  161.2312   65.0252 H       160      M_A    0.0000
   1126 H         132.4147  162.9832   62.9734 H       160      M_A    0.0000
   1127 H         132.9539  163.4970   64.5653 H       160      M_A    0.0000
   1128 C         130.6986  161.2777   63.6024 C.3     161      M_A    0.0000
   1129 C         129.2229  161.0724   63.9298 C.3     161      M_A    0.0000
   1130 O         128.9390  159.6845   64.1001 O.3     161      M_A    0.0000
   1131 H         130.8013  161.6374   62.5715 H       161      M_A    0.0000
   1132 H         131.2342  160.3225   63.6435 H       161      M_A    0.0000
   1133 H         128.6031  161.4125   63.0903 H       161      M_A    0.0000
   1134 H         128.9082  161.6620   64.8030 H       161      M_A    0.0000
   1135 C         127.5547  159.4425   64.2243 C.3     162      M_A    0.0000
   1136 C         126.9429  160.2285   65.3797 C.3     162      M_A    0.0000
   1137 O         125.6169  160.6422   65.0537 O.3     162      M_A    0.0000
   1138 H         127.0526  159.7127   63.2875 H       162      M_A    0.0000
   1139 H         127.3820  158.3689   64.3604 H       162      M_A    0.0000
   1140 H         127.5181  161.1470   65.5528 H       162      M_A    0.0000
   1141 H         126.9726  159.6647   66.3234 H       162      M_A    0.0000
   1142 C         124.8747  159.6030   64.4540 C.3     163      M_A    0.0000
   1143 C         123.4168  159.6153   64.9028 C.3     163      M_A    0.0000
   1144 O         122.5543  159.8356   63.7877 O.3     163      M_A    0.0000
   1145 H         124.9257  159.7020   63.3630 H       163      M_A    0.0000
   1146 H         125.3381  158.6387   64.6915 H       163      M_A    0.0000
   1147 H         123.2456  160.4505   65.5940 H       163      M_A    0.0000
   1148 H         123.1465  158.7016   65.4517 H       163      M_A    0.0000
   1149 C         121.2264  160.0872   64.1920 C.3     164      M_A    0.0000
   1150 C         121.0681  159.9979   65.7066 C.3     164      M_A    0.0000
   1151 O         119.8279  160.5752   66.1125 O.3     164      M_A    0.0000
   1152 H         120.9236  161.0834   63.8475 H       164      M_A    0.0000
   1153 H         120.5529  159.3789   63.6963 H       164      M_A    0.0000
   1154 H         121.8555  160.5821   66.1997 H       164      M_A    0.0000
   1155 H         121.1756  158.9665   66.0724 H       164      M_A    0.0000
   1156 C         119.7980  161.9677   65.8883 C.3     165      M_A    0.0000
   1157 C         120.7229  162.7160   66.8432 C.3     165      M_A    0.0000
   1158 O         121.2268  163.8985   66.2239 O.3     165      M_A    0.0000
   1159 H         120.0909  162.1758   64.8521 H       165      M_A    0.0000
   1160 H         118.7696  162.3324   65.9903 H       165      M_A    0.0000
   1161 H         121.5971  162.0958   67.0794 H       165      M_A    0.0000
   1162 H         120.2338  162.9363   67.8030 H       165      M_A    0.0000
   1163 C         122.5800  163.7601   65.8498 C.3     166      M_A    0.0000
   1164 C         123.5023  163.7144   67.0641 C.3     166      M_A    0.0000
   1165 O         124.8623  163.5860   66.6518 O.3     166      M_A    0.0000
   1166 H         122.7024  162.8445   65.2588 H       166      M_A    0.0000
   1167 H         122.8627  164.5866   65.1879 H       166      M_A    0.0000
   1168 H         123.2792  162.8267   67.6696 H       166      M_A    0.0000
   1169 H         123.3577  164.5815   67.7246 H       166      M_A    0.0000
   1170 C         125.7583  164.0001   67.6598 C.3     167      M_A    0.0000
   1171 C         126.7528  162.9011   68.0210 C.3     167      M_A    0.0000
   1172 O         128.0563  163.4507   68.2073 O.3     167      M_A    0.0000
   1173 H         126.3002  164.8914   67.3213 H       167      M_A    0.0000
   1174 H         125.1935  164.3090   68.5467 H       167      M_A    0.0000
   1175 H         126.8359  162.1855   67.1931 H       167      M_A    0.0000
   1176 H         126.4268  162.3216   68.8969 H       167      M_A    0.0000
   1177 C         129.0669  162.4884   68.0000 C.3     168      M_A    0.0000
   1178 C         130.3567  162.8548   68.7274 C.3     168      M_A    0.0000
   1179 O         130.9932  161.6824   69.2336 O.3     168      M_A    0.0000
   1180 H         128.7137  161.5094   68.3457 H       168      M_A    0.0000
   1181 H         129.2534  162.3797   66.9255 H       168      M_A    0.0000
   1182 H         130.1291  163.4820   69.5988 H       168      M_A    0.0000
   1183 H         131.0348  163.4440   68.0932 H       168      M_A    0.0000
   1184 C         132.3989  161.8009   69.2219 C.3     169      M_A    0.0000
   1185 C         132.8594  163.1456   69.7760 C.3     169      M_A    0.0000
   1186 O         134.1453  163.0206   70.3815 O.3     169      M_A    0.0000
   1187 H         132.8376  160.9883   69.8136 H       169      M_A    0.0000
   1188 H         132.7689  161.6634   68.1996 H       169      M_A    0.0000
   1189 H         132.1766  163.4766   70.5689 H       169      M_A    0.0000
   1190 H         132.8457  163.9339   69.0094 H       169      M_A    0.0000
   1191 C         134.9495  162.0714   69.7162 C.3     170      M_A    0.0000
   1192 C         136.4259  162.4537   69.7527 C.3     170      M_A    0.0000
   1193 O         137.2283  161.3131   70.0542 O.3     170      M_A    0.0000
   1194 H         134.8115  161.0878   70.1811 H       170      M_A    0.0000
   1195 H         134.6090  161.9659   68.6799 H       170      M_A    0.0000
   1196 H         136.6047  163.1774   70.5582 H       170      M_A    0.0000
   1197 H         136.7482  162.9433   68.8223 H       170      M_A    0.0000
   1198 C         138.5686  161.6676   70.3154 C.3     171      M_A    0.0000
   1199 C         138.9372  163.0026   69.6757 C.3     171      M_A    0.0000
   1200 O         140.1010  163.5474   70.2957 O.3     171      M_A    0.0000
   1201 H         138.7261  161.7220   71.3993 H       171      M_A    0.0000
   1202 H         139.2336  160.8754   69.9532 H       171      M_A    0.0000
   1203 H         138.1321  163.7302   69.8392 H       171      M_A    0.0000
   1204 H         139.0587  162.9181   68.5860 H       171      M_A    0.0000
   1205 C         141.2498  162.7729   70.0295 C.3     172      M_A    0.0000
   1206 C         142.4701  163.2899   70.7849 C.3     172      M_A    0.0000
   1207 O         143.5007  162.3033   70.8009 O.3     172      M_A    0.0000
   1208 H         141.0580  161.7297   70.3082 H       172      M_A    0.0000
   1209 H         141.4442  162.7662   68.9510 H       172      M_A    0.0000
   1210 H         142.2080  163.4784   71.8338 H       172      M_A    0.0000
   1211 H         142.8299  164.2473   70.3810 H       172      M_A    0.0000
   1212 C         144.4805  162.5826   71.7768 C.3     173      M_A    0.0000
   1213 C         144.9199  164.0430   71.7376 C.3     173      M_A    0.0000
   1214 O         146.0266  164.2537   72.6132 O.3     173      M_A    0.0000
   1215 H         144.0830  162.3435   72.7705 H       173      M_A    0.0000
   1216 H         145.3421  161.9217   71.6293 H       173      M_A    0.0000
   1217 H         144.1103  164.6868   72.1043 H       173      M_A    0.0000
   1218 H         145.1410  164.3798   70.7144 H       173      M_A    0.0000
   1219 C         146.9701  163.2083   72.5286 C.3     174      M_A    0.0000
   1220 C         148.3968  163.7388   72.4270 C.3     174      M_A    0.0000
   1221 O         149.2480  163.0575   73.3475 O.3     174      M_A    0.0000
   1222 H         146.8783  162.5629   73.4105 H       174      M_A    0.0000
   1223 H         146.7371  162.5746   71.6654 H       174      M_A    0.0000
   1224 H         148.4224  164.7986   72.7107 H       174      M_A    0.0000
   1225 H         148.7842  163.6860   71.3993 H       174      M_A    0.0000
   1226 C         150.6054  163.3884   73.1517 C.3     175      M_A    0.0000
   1227 C         150.8507  164.8869   73.2983 C.3     175      M_A    0.0000
   1228 O         152.1284  165.1271   73.8862 O.3     175      M_A    0.0000
   1229 H         151.2215  162.8411   73.8753 H       175      M_A    0.0000
   1230 H         150.9262  163.0451   72.1616 H       175      M_A    0.0000
   1231 H         150.1106  165.3216   73.9822 H       175      M_A    0.0000
   1232 H         150.7362  165.4189   72.3428 H       175      M_A    0.0000
   1233 C         153.1408  164.3570   73.2761 C.3     176      M_A    0.0000
   1234 C         154.5315  164.9060   73.5792 C.3     176      M_A    0.0000
   1235 O         155.4670  163.8387   73.7261 O.3     176      M_A    0.0000
   1236 H         153.0694  163.3199   73.6252 H       176      M_A    0.0000
   1237 H         152.9724  164.3233   72.1937 H       176      M_A    0.0000
   1238 H         154.5214  165.4406   74.5376 H       176      M_A    0.0000
   1239 H         154.8608  165.6345   72.8242 H       176      M_A    0.0000
   1240 C         156.5509  164.2001   74.5537 C.3     177      M_A    0.0000
   1241 C         157.0024  165.6355   74.3023 C.3     177      M_A    0.0000
   1242 O         158.1071  165.9645   75.1433 O.3     177      M_A    0.0000
   1243 H         156.2609  164.0834   75.6049 H       177      M_A    0.0000
   1244 H         157.3826  163.5053   74.3911 H       177      M_A    0.0000
   1245 H         156.1966  166.3323   74.5659 H       177      M_A    0.0000
   1246 H         157.2307  165.8162   73.2419 H       177      M_A    0.0000
   1247 C         159.3412  165.6448   74.5391 C.3     178      M_A    0.0000
   1248 C         160.5197  166.2243   75.3153 C.3     178      M_A    0.0000
   1249 O         161.7036  165.4701   75.0595 O.3     178      M_A    0.0000
   1250 H         159.4428  164.5549   74.4735 H       178      M_A    0.0000
   1251 H         159.3483  166.0113   73.5063 H       178      M_A    0.0000
   1252 H         160.3317  166.1459   76.3937 H       178      M_A    0.0000
   1253 H         160.6656  167.2939   75.1056 H       178      M_A    0.0000
   1254 C         162.8704  166.2184   75.3219 C.3     179      M_A    0.0000
   1255 C         163.8647  165.4378   76.1758 C.3     179      M_A    0.0000
   1256 O         165.1992  165.8577   75.8953 O.3     179      M_A    0.0000
   1257 H         163.3418  166.5022   74.3733 H       179      M_A    0.0000
   1258 H         162.5987  167.1577   75.8167 H       179      M_A    0.0000
   1259 H         163.8181  164.3710   75.9225 H       179      M_A    0.0000
   1260 H         163.6328  165.5096   77.2483 H       179      M_A    0.0000
   1261 C         165.5935  165.5148   74.5848 C.3     180      M_A    0.0000
   1262 C         166.9655  166.0845   74.2379 C.3     180      M_A    0.0000
   1263 O         167.9977  165.2265   74.7219 O.3     180      M_A    0.0000
   1264 H         165.6111  164.4230   74.4839 H       180      M_A    0.0000
   1265 H         164.8417  165.8717   73.8717 H       180      M_A    0.0000
   1266 H         167.1071  167.0500   74.7401 H       180      M_A    0.0000
   1267 H         167.0706  166.2798   73.1609 H       180      M_A    0.0000
   1268 C         168.4328  165.6026   76.0102 C.3     181      M_A    0.0000
   1269 C         169.2731  166.8753   75.9760 C.3     181      M_A    0.0000
   1270 O         169.7554  167.1888   77.2818 O.3     181      M_A    0.0000
   1271 H         167.5615  165.7531   76.6590 H       181      M_A    0.0000
   1272 H         169.0038  164.7812   76.4575 H       181      M_A    0.0000
   1273 H         168.6520  167.7250   75.6651 H       181      M_A    0.0000
   1274 H         170.0920  166.8093   75.2450 H       181      M_A    0.0000
   1275 C         171.1544  167.0338   77.3766 C.3     182      M_A    0.0000
   1276 C         171.8512  168.3536   77.6923 C.3     182      M_A    0.0000
   1277 O         173.0795  168.1165   78.3785 O.3     182      M_A    0.0000
   1278 H         171.3871  166.2981   78.1558 H       182      M_A    0.0000
   1279 H         171.5400  166.6140   76.4405 H       182      M_A    0.0000
   1280 H         171.2297  168.9512   78.3713 H       182      M_A    0.0000
   1281 H         172.0002  168.9670   76.7918 H       182      M_A    0.0000
   1282 C         174.1454  167.8858   77.4835 C.3     183      M_A    0.0000
   1283 C         175.5004  168.1323   78.1397 C.3     183      M_A    0.0000
   1284 O         176.5418  167.5290   77.3733 O.3     183      M_A    0.0000
   1285 H         174.0955  166.8536   77.1165 H       183      M_A    0.0000
   1286 H         174.0274  168.5257   76.6017 H       183      M_A    0.0000
   1287 H         175.5294  167.6553   79.1276 H       183      M_A    0.0000
   1288 H         175.6879  169.2025   78.3092 H       183      M_A    0.0000
   1289 C         177.7815  167.5723   78.0454 C.3     184      M_A    0.0000
   1290 C         178.1774  168.9988   78.4138 C.3     184      M_A    0.0000
   1291 O         179.1336  168.9924   79.4728 O.3     184      M_A    0.0000
   1292 H         177.7251  166.9590   78.9528 H       184      M_A    0.0000
   1293 H         178.5537  167.1128   77.4181 H       184      M_A    0.0000
   1294 H         177.3029  169.5434   78.7921 H       184      M_A    0.0000
   1295 H         178.5389  169.5644   77.5429 H       184      M_A    0.0000
   1296 C         180.4141  169.3820   79.0270 C.3     185      M_A    0.0000
   1297 C         181.5112  168.9242   79.9830 C.3     185      M_A    0.0000
   1298 O         182.7804  168.9461   79.3316 O.3     185      M_A    0.0000
   1299 H         180.5953  168.9632   78.0298 H       185      M_A    0.0000
   1300 H         180.4437  170.4709   78.9069 H       185      M_A    0.0000
   1301 H         181.3362  167.8826   80.2812 H       185      M_A    0.0000
   1302 H         181.5206  169.5126   80.9120 H       185      M_A    0.0000
   1303 C         183.7867  168.3508   80.1211 C.3     186      M_A    0.0000
   1304 C         185.0640  169.1848   80.1353 C.3     186      M_A    0.0000
   1305 O         185.9164  168.7719   81.2025 O.3     186      M_A    0.0000
   1306 H         183.4177  168.2237   81.1459 H       186      M_A    0.0000
   1307 H         183.9950  167.3417   79.7479 H       186      M_A    0.0000
   1308 H         184.8207  170.2378   80.3256 H       186      M_A    0.0000
   1309 H         185.5838  169.1595   79.1666 H       186      M_A    0.0000
   1310 C         187.2770  168.9984   80.9061 C.3     187      M_A    0.0000
   1311 C         187.8807  170.0759   81.8015 C.3     187      M_A    0.0000
   1312 O         189.2613  169.8074   82.0420 O.3     187      M_A    0.0000
   1313 H         187.8363  168.0628   81.0262 H       187      M_A    0.0000
   1314 H         187.3797  169.2782   79.8515 H       187      M_A    0.0000
   1315 H         187.3895  170.0647   82.7828 H       187      M_A    0.0000
   1316 H         187.7279  171.0852   81.3926 H       187      M_A    0.0000
   1317 C         190.0505  170.0477   80.8976 C.3     188      M_A    0.0000
   1318 C         191.5235  170.2268   81.2518 C.3     188      M_A    0.0000
   1319 O         192.3505  169.8229   80.1615 O.3     188      M_A    0.0000
   1320 H         189.9387  169.2120   80.1963 H       188      M_A    0.0000
   1321 H         189.6744  170.9337   80.3736 H       188      M_A    0.0000
   1322 H         191.7868  169.5760   82.0954 H       188      M_A    0.0000
   1323 H         191.7482  171.2539   81.5739 H       188      M_A    0.0000
   1324 C         193.6588  170.3386   80.2751 C.3     189      M_A    0.0000
   1325 C         194.2043  170.1940   81.6924 C.3     189      M_A    0.0000
   1326 O         195.6054  169.9262   81.6618 O.3     189      M_A    0.0000
   1327 H         194.3181  169.8167   79.5710 H       189      M_A    0.0000
   1328 H         193.6646  171.3912   79.9703 H       189      M_A    0.0000
   1329 H         193.7370  169.3327   82.1866 H       189      M_A    0.0000
   1330 H         193.9711  171.0698   82.3153 H       189      M_A    0.0000
   1331 C         195.8953  168.7199   80.9902 C.3     190      M_A    0.0000
   1332 C         194.7096  168.2316   80.1639 C.3     190      M_A    0.0000
   1333 O         195.0628  167.0602   79.4299 O.3     190      M_A    0.0000
   1334 H         196.7644  168.8664   80.3376 H       190      M_A    0.0000
   1335 H         196.1909  167.9573   81.7197 H       190      M_A    0.0000
   1336 H         194.4352  168.9901   79.4197 H       190      M_A    0.0000
   1337 H         193.8148  168.0697   80.7823 H       190      M_A    0.0000
   1338 C         194.0565  166.6915   78.5125 C.3     191      M_A    0.0000
   1339 C         192.9642  165.8569   79.1739 C.3     191      M_A    0.0000
   1340 O         191.6903  166.1686   78.6118 O.3     191      M_A    0.0000
   1341 H         193.6159  167.5945   78.0733 H       191      M_A    0.0000
   1342 H         194.5059  166.1391   77.6794 H       191      M_A    0.0000
   1343 H         192.8988  166.1050   80.2409 H       191      M_A    0.0000
   1344 H         193.1793  164.7798   79.1212 H       191      M_A    0.0000
   1345 C         190.6375  165.8878   79.5080 C.3     192      M_A    0.0000
   1346 C         189.3151  166.4824   79.0336 C.3     192      M_A    0.0000
   1347 O         188.2710  165.5148   79.1302 O.3     192      M_A    0.0000
   1348 H         190.5347  164.8018   79.6198 H       192      M_A    0.0000
   1349 H         190.8922  166.2709   80.5027 H       192      M_A    0.0000
   1350 H         189.3865  166.7534   77.9726 H       192      M_A    0.0000
   1351 H         189.0628  167.4080   79.5711 H       192      M_A    0.0000
   1352 C         186.9999  166.1203   79.2191 C.3     193      M_A    0.0000
   1353 C         185.8750  165.1105   79.0141 C.3     193      M_A    0.0000
   1354 O         184.6097  165.7700   79.0032 O.3     193      M_A    0.0000
   1355 H         186.8923  166.5983   80.2002 H       193      M_A    0.0000
   1356 H         186.9267  166.9269   78.4808 H       193      M_A    0.0000
   1357 H         185.8476  164.4058   79.8550 H       193      M_A    0.0000
   1358 H         186.0252  164.5039   78.1093 H       193      M_A    0.0000
   1359 C         183.6998  165.1467   78.1235 C.3     194      M_A    0.0000
   1360 C         182.2675  165.6128   78.3652 C.3     194      M_A    0.0000
   1361 O         181.6545  165.9966   77.1352 O.3     194      M_A    0.0000
   1362 H         183.9885  165.3634   77.0879 H       194      M_A    0.0000
   1363 H         183.7702  164.0588   78.2351 H       194      M_A    0.0000
   1364 H         182.2679  166.5071   79.0012 H       194      M_A    0.0000
   1365 H         181.6723  164.8569   78.8977 H       194      M_A    0.0000
   1366 C         180.5818  166.8900   77.3390 C.3     195      M_A    0.0000
   1367 C         179.9387  167.3138   76.0222 C.3     195      M_A    0.0000
   1368 O         180.6156  168.4464   75.4793 O.3     195      M_A    0.0000
   1369 H         179.8298  166.4154   77.9809 H       195      M_A    0.0000
   1370 H         180.9372  167.7685   77.8893 H       195      M_A    0.0000
   1371 H         178.9022  167.6293   76.1970 H       195      M_A    0.0000
   1372 H         179.8903  166.4848   75.3013 H       195      M_A    0.0000
   1373 C         179.7965  169.1707   74.5878 C.3     196      M_A    0.0000
   1374 C         178.3505  169.2335   75.0699 C.3     196      M_A    0.0000
   1375 O         177.6087  170.1767   74.2979 O.3     196      M_A    0.0000
   1376 H         180.1920  170.1872   74.4743 H       196      M_A    0.0000
   1377 H         179.8466  168.7145   73.5926 H       196      M_A    0.0000
   1378 H         178.3176  169.5909   76.1070 H       196      M_A    0.0000
   1379 H         177.8727  168.2431   75.0707 H       196      M_A    0.0000
   1380 C         176.4610  170.6292   74.9822 C.3     197      M_A    0.0000
   1381 C         175.2336  170.6540   74.0767 C.3     197      M_A    0.0000
   1382 O         175.0026  169.3626   73.5157 O.3     197      M_A    0.0000
   1383 H         176.2707  169.9781   75.8439 H       197      M_A    0.0000
   1384 H         176.6506  171.6270   75.3940 H       197      M_A    0.0000
   1385 H         175.4073  171.3306   73.2303 H       197      M_A    0.0000
   1386 H         174.3440  171.0359   74.5982 H       197      M_A    0.0000
   1387 C         174.7693  168.3910   74.5117 C.3     198      M_A    0.0000
   1388 C         173.7316  167.3637   74.0700 C.3     198      M_A    0.0000
   1389 O         174.1537  166.0468   74.4214 O.3     198      M_A    0.0000
   1390 H         175.7112  167.8837   74.7530 H       198      M_A    0.0000
   1391 H         174.4471  168.8847   75.4356 H       198      M_A    0.0000
   1392 H         173.6366  167.3749   72.9767 H       198      M_A    0.0000
   1393 H         172.7319  167.5901   74.4679 H       198      M_A    0.0000
   1394 C         173.7410  165.0910   73.4694 C.3     199      M_A    0.0000
   1395 C         172.3969  164.4694   73.8357 C.3     199      M_A    0.0000
   1396 O         171.9084  163.6696   72.7598 O.3     199      M_A    0.0000
   1397 H         173.6714  165.5660   72.4834 H       199      M_A    0.0000
   1398 H         174.5075  164.3133   73.3762 H       199      M_A    0.0000
   1399 H         171.6513  165.2587   73.9956 H       199      M_A    0.0000
   1400 H         172.4482  163.9000   74.7750 H       199      M_A    0.0000
   1401 C         170.5158  163.4624   72.8492 C.3     200      M_A    0.0000
   1402 C         170.1792  162.0195   73.2127 C.3     200      M_A    0.0000
   1403 O         168.7776  161.8769   73.4383 O.3     200      M_A    0.0000
   1404 H         170.0945  164.1402   73.6013 H       200      M_A    0.0000
   1405 H         170.0438  163.7356   71.8986 H       200      M_A    0.0000
   1406 H         170.6720  161.7468   74.1546 H       200      M_A    0.0000
   1407 H         170.5441  161.3082   72.4576 H       200      M_A    0.0000
   1408 C         168.4005  160.5232   73.5631 C.3     201      M_A    0.0000
   1409 C         167.1619  160.2006   72.7331 C.3     201      M_A    0.0000
   1410 O         167.2213  158.8592   72.2505 O.3     201      M_A    0.0000
   1411 H         169.2330  159.8829   73.2476 H       201      M_A    0.0000
   1412 H         168.2229  160.2890   74.6189 H       201      M_A    0.0000
   1413 H         167.1282  160.8457   71.8458 H       201      M_A    0.0000
   1414 H         166.2321  160.3923   73.2881 H       201      M_A    0.0000
   1415 C         165.9394  158.2779   72.1547 C.3     202      M_A    0.0000
   1416 C         165.9268  157.0860   71.2025 C.3     202      M_A    0.0000
   1417 O         164.6391  156.4715   71.1911 O.3     202      M_A    0.0000
   1418 H         165.6095  157.9580   73.1505 H       202      M_A    0.0000
   1419 H         165.2182  159.0350   71.8266 H       202      M_A    0.0000
   1420 H         166.6303  156.3202   71.5532 H       202      M_A    0.0000
   1421 H         166.2540  157.3637   70.1901 H       202      M_A    0.0000
   1422 C         164.5382  155.4815   70.1910 C.3     203      M_A    0.0000
   1423 C         163.3226  155.7012   69.2960 C.3     203      M_A    0.0000
   1424 O         163.2538  154.6894   68.2923 O.3     203      M_A    0.0000
   1425 H         165.4503  155.4851   69.5820 H       203      M_A    0.0000
   1426 H         164.4921  154.4919   70.6596 H       203      M_A    0.0000
   1427 H         163.4180  156.6564   68.7640 H       203      M_A    0.0000
   1428 H         162.3900  155.7637   69.8751 H       203      M_A    0.0000
   1429 C         161.9219  154.4012   67.9271 C.3     204      M_A    0.0000
   1430 C         161.0986  155.6712   67.7365 C.3     204      M_A    0.0000
   1431 O         159.8778  155.3763   67.0593 O.3     204      M_A    0.0000
   1432 H         161.9174  153.8159   66.9997 H       204      M_A    0.0000
   1433 H         161.4639  153.7614   68.6899 H       204      M_A    0.0000
   1434 H         161.6431  156.3770   67.0962 H       204      M_A    0.0000
   1435 H         160.9202  156.1936   68.6876 H       204      M_A    0.0000
   1436 C         158.9890  156.4718   67.0772 C.3     205      M_A    0.0000
   1437 C         158.4984  156.7811   68.4882 C.3     205      M_A    0.0000
   1438 O         157.8781  158.0654   68.5293 O.3     205      M_A    0.0000
   1439 H         159.4895  157.3534   66.6591 H       205      M_A    0.0000
   1440 H         158.1401  156.2646   66.4158 H       205      M_A    0.0000
   1441 H         159.3505  156.8286   69.1781 H       205      M_A    0.0000
   1442 H         157.8331  155.9955   68.8749 H       205      M_A    0.0000
   1443 C         156.7480  158.0764   69.3737 C.3     206      M_A    0.0000
   1444 C         156.2569  159.4949   69.6455 C.3     206      M_A    0.0000
   1445 O         155.0298  159.4661   70.3731 O.3     206      M_A    0.0000
   1446 H         155.9440  157.4895   68.9134 H       206      M_A    0.0000
   1447 H         156.9901  157.5703   70.3152 H       206      M_A    0.0000
   1448 H         156.0407  160.0036   68.6974 H       206      M_A    0.0000
   1449 H         157.0175  160.1041   70.1549 H       206      M_A    0.0000
   1450 C         154.8549  160.6275   71.1547 C.3     207      M_A    0.0000
   1451 C         153.8723  161.6013   70.5117 C.3     207      M_A    0.0000
   1452 O         152.5467  161.3504   70.9762 O.3     207      M_A    0.0000
   1453 H         154.4953  160.3447   72.1513 H       207      M_A    0.0000
   1454 H         155.8251  161.1129   71.3104 H       207      M_A    0.0000
   1455 H         153.8517  161.4484   69.4251 H       207      M_A    0.0000
   1456 H         154.1670  162.6488   70.6693 H       207      M_A    0.0000
   1457 C         151.5760  161.9365   70.1369 C.3     208      M_A    0.0000
   1458 C         151.4416  161.1865   68.8153 C.3     208      M_A    0.0000
   1459 O         150.1318  161.3586   68.2760 O.3     208      M_A    0.0000
   1460 H         150.6087  161.9501   70.6534 H       208      M_A    0.0000
   1461 H         151.8356  162.9855   69.9547 H       208      M_A    0.0000
   1462 H         151.5663  160.1091   68.9827 H       208      M_A    0.0000
   1463 H         152.2195  161.4778   68.0948 H       208      M_A    0.0000
   1464 C         149.2430  161.9127   69.2212 C.3     209      M_A    0.0000
   1465 C         147.8004  161.8878   68.7257 C.3     209      M_A    0.0000
   1466 O         147.2282  163.1931   68.7930 O.3     209      M_A    0.0000
   1467 H         149.3194  161.3557   70.1628 H       209      M_A    0.0000
   1468 H         149.5486  162.9394   69.4523 H       209      M_A    0.0000
   1469 H         147.1915  161.2507   69.3799 H       209      M_A    0.0000
   1470 H         147.7184  161.4593   67.7163 H       209      M_A    0.0000
   1471 C         148.2143  164.1927   68.9296 C.3     210      M_A    0.0000
   1472 C         147.6119  165.5936   68.8845 C.3     210      M_A    0.0000
   1473 O         148.5370  166.5502   69.3994 O.3     210      M_A    0.0000
   1474 H         148.7477  164.0508   69.8772 H       210      M_A    0.0000
   1475 H         148.9654  164.0757   68.1401 H       210      M_A    0.0000
   1476 H         146.7275  165.6410   69.5325 H       210      M_A    0.0000
   1477 H         147.2684  165.8625   67.8751 H       210      M_A    0.0000
   1478 C         148.5346  166.5771   70.8099 C.3     211      M_A    0.0000
   1479 C         147.9297  167.8687   71.3514 C.3     211      M_A    0.0000
   1480 O         146.6083  167.6348   71.8361 O.3     211      M_A    0.0000
   1481 H         147.9692  165.7175   71.1894 H       211      M_A    0.0000
   1482 H         149.5586  166.4519   71.1797 H       211      M_A    0.0000
   1483 H         147.8352  168.6048   70.5429 H       211      M_A    0.0000
   1484 H         148.5675  168.3333   72.1173 H       211      M_A    0.0000
   1485 C         146.5900  166.6757   72.8706 C.3     212      M_A    0.0000
   1486 C         146.0643  167.2611   74.1776 C.3     212      M_A    0.0000
   1487 O         144.7108  166.8638   74.3923 O.3     212      M_A    0.0000
   1488 H         145.9650  165.8267   72.5688 H       212      M_A    0.0000
   1489 H         147.5990  166.2721   73.0128 H       212      M_A    0.0000
   1490 H         146.0580  168.3571   74.1203 H       212      M_A    0.0000
   1491 H         146.7049  167.0015   75.0328 H       212      M_A    0.0000
   1492 C         143.7980  167.8002   73.8629 C.3     213      M_A    0.0000
   1493 C         143.0182  167.2277   72.6833 C.3     213      M_A    0.0000
   1494 O         141.6634  167.6737   72.7185 O.3     213      M_A    0.0000
   1495 H         143.1005  168.1132   74.6492 H       213      M_A    0.0000
   1496 H         144.3369  168.7050   73.5599 H       213      M_A    0.0000
   1497 H         142.9839  166.1330   72.7540 H       213      M_A    0.0000
   1498 H         143.4976  167.4588   71.7210 H       213      M_A    0.0000
   1499 C         141.0086  167.4633   71.4867 C.3     214      M_A    0.0000
   1500 C         139.6371  168.1304   71.4522 C.3     214      M_A    0.0000
   1501 O         139.4618  168.8455   70.2300 O.3     214      M_A    0.0000
   1502 H         141.6301  167.8553   70.6726 H       214      M_A    0.0000
   1503 H         140.9134  166.3872   71.3024 H       214      M_A    0.0000
   1504 H         139.5624  168.8730   72.2568 H       214      M_A    0.0000
   1505 H         138.8238  167.4100   71.6221 H       214      M_A    0.0000
   1506 C         138.6949  170.0157   70.4112 C.3     215      M_A    0.0000
   1507 C         137.5484  170.1033   69.4087 C.3     215      M_A    0.0000
   1508 O         136.3285  170.4268   70.0743 O.3     215      M_A    0.0000
   1509 H         138.2946  170.0341   71.4320 H       215      M_A    0.0000
   1510 H         139.3436  170.8948   70.3255 H       215      M_A    0.0000
   1511 H         137.3907  169.1259   68.9350 H       215      M_A    0.0000
   1512 H         137.7663  170.8085   68.5936 H       215      M_A    0.0000
   1513 C         135.2166  169.8103   69.4628 C.3     216      M_A    0.0000
   1514 C         135.2507  169.9567   67.9447 C.3     216      M_A    0.0000
   1515 O         134.3024  169.0797   67.3385 O.3     216      M_A    0.0000
   1516 H         135.1971  168.7471   69.7307 H       216      M_A    0.0000
   1517 H         134.2926  170.2402   69.8661 H       216      M_A    0.0000
   1518 H         136.2350  169.6573   67.5625 H       216      M_A    0.0000
   1519 H         135.1016  170.9989   67.6275 H       216      M_A    0.0000
   1520 C         133.4345  168.5050   68.2907 C.3     217      M_A    0.0000
   1521 C         132.1198  168.0550   67.6612 C.3     217      M_A    0.0000
   1522 O         131.4336  167.1555   68.5306 O.3     217      M_A    0.0000
   1523 H         133.9293  167.6482   68.7638 H       217      M_A    0.0000
   1524 H         133.2449  169.2255   69.0944 H       217      M_A    0.0000
   1525 H         132.3195  167.4976   66.7371 H       217      M_A    0.0000
   1526 H         131.4864  168.9072   67.3755 H       217      M_A    0.0000
   1527 C         132.3287  166.3646   69.2813 C.3     218      M_A    0.0000
   1528 C         133.6523  167.0827   69.5256 C.3     218      M_A    0.0000
   1529 O         134.7449  166.1774   69.3762 O.3     218      M_A    0.0000
   1530 H         131.8672  166.1047   70.2416 H       218      M_A    0.0000
   1531 H         132.5009  165.4148   68.7624 H       218      M_A    0.0000
   1532 H         133.6941  167.4477   70.5598 H       218      M_A    0.0000
   1533 H         133.7663  167.9673   68.8825 H       218      M_A    0.0000
   1534 C         134.4195  165.0959   68.5307 C.3     219      M_A    0.0000
   1535 C         133.0008  165.2119   67.9820 C.3     219      M_A    0.0000
   1536 O         132.9902  164.9753   66.5750 O.3     219      M_A    0.0000
   1537 H         135.1342  165.0557   67.6999 H       219      M_A    0.0000
   1538 H         134.5401  164.1544   69.0784 H       219      M_A    0.0000
   1539 H         132.6272  166.2339   68.1250 H       219      M_A    0.0000
   1540 H         132.2988  164.5511   68.5109 H       219      M_A    0.0000
   1541 C         133.9295  165.7825   65.8992 C.3     220      M_A    0.0000
   1542 C         133.3150  166.4728   64.6855 C.3     220      M_A    0.0000
   1543 O         134.1767  167.5063   64.2113 O.3     220      M_A    0.0000
   1544 H         134.3262  166.5357   66.5905 H       220      M_A    0.0000
   1545 H         134.7863  165.1703   65.5958 H       220      M_A    0.0000
   1546 H         132.3749  166.9623   64.9703 H       220      M_A    0.0000
   1547 H         133.0607  165.7581   63.8895 H       220      M_A    0.0000
   1548 C         135.1450  167.0120   63.3121 C.3     221      M_A    0.0000
   1549 C         134.5153  166.5306   62.0087 C.3     221      M_A    0.0000
   1550 O         135.2865  166.9694   60.8913 O.3     221      M_A    0.0000
   1551 H         135.8788  167.7985   63.0989 H       221      M_A    0.0000
   1552 H         135.7042  166.1985   63.7881 H       221      M_A    0.0000
   1553 H         133.5190  166.9750   61.8886 H       221      M_A    0.0000
   1554 H         134.3691  165.4408   61.9992 H       221      M_A    0.0000
   1555 C         135.4471  165.9490   59.9304 C.3     222      M_A    0.0000
   1556 C         134.1090  165.3459   59.5145 C.3     222      M_A    0.0000
   1557 O         134.2994  164.3692   58.4919 O.3     222      M_A    0.0000
   1558 H         135.9581  166.3558   59.0495 H       222      M_A    0.0000
   1559 H         136.1076  165.1711   60.3301 H       222      M_A    0.0000
   1560 H         133.4669  166.1236   59.0817 H       222      M_A    0.0000
   1561 H         133.5578  164.9343   60.3724 H       222      M_A    0.0000
   1562 C         133.8489  163.0938   58.8929 C.3     223      M_A    0.0000
   1563 C         132.4503  163.1511   59.4995 C.3     223      M_A    0.0000
   1564 O         131.7332  161.9516   59.2116 O.3     223      M_A    0.0000
   1565 H         133.8486  162.4194   58.0280 H       223      M_A    0.0000
   1566 H         134.5577  162.6645   59.6100 H       223      M_A    0.0000
   1567 H         131.8783  163.9688   59.0429 H       223      M_A    0.0000
   1568 H         132.4773  163.3598   60.5788 H       223      M_A    0.0000
   1569 C         130.8018  161.6403   60.2244 C.3     224      M_A    0.0000
   1570 C         130.2144  160.2439   60.0450 C.3     224      M_A    0.0000
   1571 O         131.1732  159.2504   60.4053 O.3     224      M_A    0.0000
   1572 H         131.2910  161.7119   61.2033 H       224      M_A    0.0000
   1573 H         130.0036  162.3912   60.2303 H       224      M_A    0.0000
   1574 H         129.9755  160.0719   58.9878 H       224      M_A    0.0000
   1575 H         129.2720  160.1188   60.5976 H       224      M_A    0.0000
   1576 C         132.0812  159.7238   61.3757 C.3     225      M_A    0.0000
   1577 C         131.6227  159.3903   62.7919 C.3     225      M_A    0.0000
   1578 O         132.2347  158.1824   63.2419 O.3     225      M_A    0.0000
   1579 H         133.0694  159.2841   61.1946 H       225      M_A    0.0000
   1580 H         132.2071  160.8064   61.2612 H       225      M_A    0.0000
   1581 H         130.5404  159.2091   62.8014 H       225      M_A    0.0000
   1582 H         131.8015  160.2212   63.4897 H       225      M_A    0.0000
   1583 C         132.4732  158.2005   64.6323 C.3     226      M_A    0.0000
   1584 C         131.2637  158.7119   65.4087 C.3     226      M_A    0.0000
   1585 O         131.1200  157.9963   66.6347 O.3     226      M_A    0.0000
   1586 H         132.7283  157.1891   64.9709 H       226      M_A    0.0000
   1587 H         133.3518  158.8203   64.8445 H       226      M_A    0.0000
   1588 H         130.3463  158.5274   64.8353 H       226      M_A    0.0000
   1589 H         131.3094  159.7980   65.5747 H       226      M_A    0.0000
   1590 C         130.3358  158.7057   67.5685 C.3     227      M_A    0.0000
   1591 C         129.2874  157.8120   68.2238 C.3     227      M_A    0.0000
   1592 O         129.0870  158.1943   69.5838 O.3     227      M_A    0.0000
   1593 H         130.9873  159.1359   68.3386 H       227      M_A    0.0000
   1594 H         129.8546  159.5554   67.0711 H       227      M_A    0.0000
   1595 H         129.6421  156.7737   68.2450 H       227      M_A    0.0000
   1596 H         128.3430  157.8029   67.6605 H       227      M_A    0.0000
   1597 C         128.5055  159.4753   69.6893 C.3     228      M_A    0.0000
   1598 C         128.7490  160.0975   71.0608 C.3     228      M_A    0.0000
   1599 O         127.6029  160.8346   71.4837 O.3     228      M_A    0.0000
   1600 H         128.9176  160.1275   68.9099 H       228      M_A    0.0000
   1601 H         127.4304  159.4065   69.4879 H       228      M_A    0.0000
   1602 H         129.5744  160.8184   71.0028 H       228      M_A    0.0000
   1603 H         129.0480  159.3470   71.8068 H       228      M_A    0.0000
   1604 C         127.6607  162.1811   71.0666 C.3     229      M_A    0.0000
   1605 C         126.3467  162.9118   71.3249 C.3     229      M_A    0.0000
   1606 O         126.5947  164.1952   71.8969 O.3     229      M_A    0.0000
   1607 H         128.4761  162.6908   71.5939 H       229      M_A    0.0000
   1608 H         127.9169  162.2233   70.0019 H       229      M_A    0.0000
   1609 H         125.7491  162.3575   72.0598 H       229      M_A    0.0000
   1610 H         125.7294  162.9833   70.4177 H       229      M_A    0.0000
   1611 C         125.4037  164.8194   72.3237 C.3     230      M_A    0.0000
   1612 C         124.5508  165.2793   71.1455 C.3     230      M_A    0.0000
   1613 O         124.7312  166.6759   70.9153 O.3     230      M_A    0.0000
   1614 H         124.8293  164.1215   72.9448 H       230      M_A    0.0000
   1615 H         125.6480  165.6690   72.9715 H       230      M_A    0.0000
   1616 H         123.4871  165.1405   71.3775 H       230      M_A    0.0000
   1617 H         124.7473  164.6890   70.2388 H       230      M_A    0.0000
   1618 C         126.0488  167.0900   71.2033 C.3     231      M_A    0.0000
   1619 C         127.0841  166.2136   70.5053 C.3     231      M_A    0.0000
   1620 O         126.9810  166.3530   69.0891 O.3     231      M_A    0.0000
   1621 H         126.1785  168.1335   70.8919 H       231      M_A    0.0000
   1622 H         126.2074  167.0767   72.2876 H       231      M_A    0.0000
   1623 H         126.8883  165.1564   70.7256 H       231      M_A    0.0000
   1624 H         128.1044  166.4179   70.8609 H       231      M_A    0.0000
   1625 C         125.8422  167.0973   68.7158 C.3     232      M_A    0.0000
   1626 C         125.8313  167.4064   67.2219 C.3     232      M_A    0.0000
   1627 O         124.5494  167.8893   66.8227 O.3     232      M_A    0.0000
   1628 H         124.9379  166.5377   68.9834 H       232      M_A    0.0000
   1629 H         125.8056  168.0257   69.2970 H       232      M_A    0.0000
   1630 H         126.0059  166.4869   66.6488 H       232      M_A    0.0000
   1631 H         126.6343  168.1023   66.9389 H       232      M_A    0.0000
   1632 C         124.5920  168.5073   65.5552 C.3     233      M_A    0.0000
   1633 C         123.2205  169.0213   65.1284 C.3     233      M_A    0.0000
   1634 O         122.9217  168.5979   63.7990 O.3     233      M_A    0.0000
   1635 H         125.3065  169.3389   65.5795 H       233      M_A    0.0000
   1636 H         124.9798  167.7977   64.8155 H       233      M_A    0.0000
   1637 H         123.2222  170.1186   65.1089 H       233      M_A    0.0000
   1638 H         122.4316  168.7275   65.8358 H       233      M_A    0.0000
   1639 C         121.5314  168.5159   63.5736 C.3     234      M_A    0.0000
   1640 C         120.7831  169.6799   64.2157 C.3     234      M_A    0.0000
   1641 O         119.3770  169.5360   64.0207 O.3     234      M_A    0.0000
   1642 H         121.3379  168.5033   62.4943 H       234      M_A    0.0000
   1643 H         121.1543  167.5618   63.9590 H       234      M_A    0.0000
   1644 H         121.0668  170.6211   63.7278 H       234      M_A    0.0000
   1645 H         121.0364  169.7964   65.2794 H       234      M_A    0.0000
   1646 C         118.7687  168.8321   65.0813 C.3     235      M_A    0.0000
   1647 C         119.6994  167.7755   65.6682 C.3     235      M_A    0.0000
   1648 O         119.2122  167.3301   66.9332 O.3     235      M_A    0.0000
   1649 H         118.4727  169.5395   65.8652 H       235      M_A    0.0000
   1650 H         117.8410  168.3682   64.7275 H       235      M_A    0.0000
   1651 H         120.6888  168.2116   65.8557 H       235      M_A    0.0000
   1652 H         119.8594  166.9364   64.9757 H       235      M_A    0.0000
   1653 C         119.8491  166.1436   67.3536 C.3     236      M_A    0.0000
   1654 C         120.6972  166.3668   68.6018 C.3     236      M_A    0.0000
   1655 O         119.8704  166.4138   69.7637 O.3     236      M_A    0.0000
   1656 H         119.0923  165.3757   67.5542 H       236      M_A    0.0000
   1657 H         120.4676  165.7520   66.5380 H       236      M_A    0.0000
   1658 H         121.2004  167.3403   68.5426 H       236      M_A    0.0000
   1659 H         121.4934  165.6146   68.6994 H       236      M_A    0.0000
   1660 C         118.5173  166.1588   69.4565 C.3     237      M_A    0.0000
   1661 C         118.3734  165.1262   68.3429 C.3     237      M_A    0.0000
   1662 O         117.1163  164.4586   68.4422 O.3     237      M_A    0.0000
   1663 H         118.0001  165.8051   70.3566 H       237      M_A    0.0000
   1664 H         118.0239  167.0955   69.1733 H       237      M_A    0.0000
   1665 H         119.1428  164.3510   68.4503 H       237      M_A    0.0000
   1666 H         118.5207  165.5699   67.3476 H       237      M_A    0.0000
   1667 C         116.0916  165.1663   67.7793 C.3     238      M_A    0.0000
   1668 C         116.2997  165.1828   66.2681 C.3     238      M_A    0.0000
   1669 O         115.3108  165.9959   65.6382 O.3     238      M_A    0.0000
   1670 H         115.1229  164.7086   68.0134 H       238      M_A    0.0000
   1671 H         116.0436  166.1898   68.1682 H       238      M_A    0.0000
   1672 H         116.1708  164.1713   65.8622 H       238      M_A    0.0000
   1673 H         117.3178  165.4961   65.9955 H       238      M_A    0.0000
   1674 C         115.8535  167.2067   65.1588 C.3     239      M_A    0.0000
   1675 C         115.8656  168.2880   66.2348 C.3     239      M_A    0.0000
   1676 O         116.3322  169.5233   65.6941 O.3     239      M_A    0.0000
   1677 H         116.8750  167.0311   64.8006 H       239      M_A    0.0000
   1678 H         115.2816  167.5437   64.2868 H       239      M_A    0.0000
   1679 H         116.5699  168.0150   67.0310 H       239      M_A    0.0000
   1680 H         114.8841  168.4004   66.7177 H       239      M_A    0.0000
   1681 C         116.5372  170.4926   66.6984 C.3     240      M_A    0.0000
   1682 C         117.7403  170.1563   67.5740 C.3     240      M_A    0.0000
   1683 O         118.7678  171.1316   67.4041 O.3     240      M_A    0.0000
   1684 H         116.6830  171.4744   66.2323 H       240      M_A    0.0000
   1685 H         115.6330  170.5808   67.3113 H       240      M_A    0.0000
   1686 H         118.1723  169.1966   67.2629 H       240      M_A    0.0000
   1687 H         117.4612  170.0396   68.6312 H       240      M_A    0.0000
   1688 C         119.6297  171.1868   68.5197 C.3     241      M_A    0.0000
   1689 C         120.9462  170.4627   68.2557 C.3     241      M_A    0.0000
   1690 O         121.9746  170.9753   69.1016 O.3     241      M_A    0.0000
   1691 H         119.8295  172.2348   68.7737 H       241      M_A    0.0000
   1692 H         119.1261  170.7555   69.3923 H       241      M_A    0.0000
   1693 H         121.2744  170.6480   67.2251 H       241      M_A    0.0000
   1694 H         120.8441  169.3723   68.3546 H       241      M_A    0.0000
   1695 C         122.8440  169.9576   69.5477 C.3     242      M_A    0.0000
   1696 C         124.1691  169.9721   68.7920 C.3     242      M_A    0.0000
   1697 O         125.1457  170.7213   69.5137 O.3     242      M_A    0.0000
   1698 H         123.0300  170.0826   70.6212 H       242      M_A    0.0000
   1699 H         122.3536  168.9837   69.4377 H       242      M_A    0.0000
   1700 H         124.0434  170.4794   67.8270 H       242      M_A    0.0000
   1701 H         124.5237  168.9570   68.5619 H       242      M_A    0.0000
   1702 C         124.8109  170.8436   70.8788 C.3     243      M_A    0.0000
   1703 C         123.3470  170.5008   71.1366 C.3     243      M_A    0.0000
   1704 O         123.2424  169.4677   72.1152 O.3     243      M_A    0.0000
   1705 H         125.4546  170.1829   71.4719 H       243      M_A    0.0000
   1706 H         125.0291  171.8623   71.2188 H       243      M_A    0.0000
   1707 H         122.8890  170.1051   70.2212 H       243      M_A    0.0000
   1708 H         122.7591  171.3869   71.4164 H       243      M_A    0.0000
   1709 C         121.9076  169.2643   72.5242 C.3     244      M_A    0.0000
   1710 C         121.5167  167.7906   72.4719 C.3     244      M_A    0.0000
   1711 O         120.6018  167.4807   73.5220 O.3     244      M_A    0.0000
   1712 H         121.7776  169.6445   73.5445 H       244      M_A    0.0000
   1713 H         121.2373  169.8587   71.8930 H       244      M_A    0.0000
   1714 H         122.4014  167.1632   72.6393 H       244      M_A    0.0000
   1715 H         121.1184  167.5043   71.4878 H       244      M_A    0.0000
   1716 C         120.0803  166.1758   73.3966 C.3     245      M_A    0.0000
   1717 C         120.6334  165.4596   72.1685 C.3     245      M_A    0.0000
   1718 O         120.4800  164.0476   72.3045 O.3     245      M_A    0.0000
   1719 H         120.3198  165.5999   74.2987 H       245      M_A    0.0000
   1720 H         118.9864  166.2223   73.3499 H       245      M_A    0.0000
   1721 H         121.7116  165.6452   72.0817 H       245      M_A    0.0000
   1722 H         120.1816  165.8299   71.2369 H       245      M_A    0.0000
   1723 C         120.6497  163.3796   71.0735 C.3     246      M_A    0.0000
   1724 C         121.7067  162.2834   71.1639 C.3     246      M_A    0.0000
   1725 O         121.0877  161.0008   71.2513 O.3     246      M_A    0.0000
   1726 H         119.6928  162.9446   70.7606 H       246      M_A    0.0000
   1727 H         120.9192  164.1054   70.2978 H       246      M_A    0.0000
   1728 H         122.2936  162.4052   72.0833 H       246      M_A    0.0000
   1729 H         122.4243  162.3328   70.3322 H       246      M_A    0.0000
   1730 C         120.7795  160.4781   69.9777 C.3     247      M_A    0.0000
   1731 C         120.2084  159.0664   70.0670 C.3     247      M_A    0.0000
   1732 O         121.0544  158.1429   69.3835 O.3     247      M_A    0.0000
   1733 H         120.0586  161.1369   69.4787 H       247      M_A    0.0000
   1734 H         121.6791  160.4861   69.3518 H       247      M_A    0.0000
   1735 H         119.2351  159.0244   69.5616 H       247      M_A    0.0000
   1736 H         120.0282  158.7595   71.1074 H       247      M_A    0.0000
   1737 C         122.3594  158.1296   69.9195 C.3     248      M_A    0.0000
   1738 C         123.4108  157.8659   68.8461 C.3     248      M_A    0.0000
   1739 O         124.7094  157.7819   69.4312 O.3     248      M_A    0.0000
   1740 H         122.5625  159.0909   70.4067 H       248      M_A    0.0000
   1741 H         122.4227  157.3719   70.7088 H       248      M_A    0.0000
   1742 H         123.4445  158.7066   68.1415 H       248      M_A    0.0000
   1743 H         123.1753  156.9732   68.2488 H       248      M_A    0.0000
   1744 C         125.0067  156.4727   69.8649 C.3     249      M_A    0.0000
   1745 C         126.0698  155.8136   68.9916 C.3     249      M_A    0.0000
   1746 O         126.7960  154.8401   69.7406 O.3     249      M_A    0.0000
   1747 H         125.3513  156.5035   70.9056 H       249      M_A    0.0000
   1748 H         124.0903  155.8717   69.8681 H       249      M_A    0.0000
   1749 H         126.8036  156.5624   68.6670 H       249      M_A    0.0000
   1750 H         125.6418  155.3845   68.0741 H       249      M_A    0.0000
   1751 C         127.0988  153.7002   68.9665 C.3     250      M_A    0.0000
   1752 C         128.3380  152.9762   69.4837 C.3     250      M_A    0.0000
   1753 O         128.2198  151.5707   69.2680 O.3     250      M_A    0.0000
   1754 H         126.2415  153.0164   68.9749 H       250      M_A    0.0000
   1755 H         127.2392  153.9954   67.9204 H       250      M_A    0.0000
   1756 H         128.4259  153.1148   70.5689 H       250      M_A    0.0000
   1757 H         129.2632  153.3784   69.0463 H       250      M_A    0.0000
   1758 C         129.4515  150.9903   68.8990 C.3     251      M_A    0.0000
   1759 C         129.6354  149.6083   69.5182 C.3     251      M_A    0.0000
   1760 O         130.5126  148.8169   68.7181 O.3     251      M_A    0.0000
   1761 H         129.5056  150.9151   67.8062 H       251      M_A    0.0000
   1762 H         130.2718  151.6532   69.1968 H       251      M_A    0.0000
   1763 H         128.6751  149.0775   69.5393 H       251      M_A    0.0000
   1764 H         129.9778  149.6661   70.5616 H       251      M_A    0.0000
   1765 C         130.6567  147.5106   69.2310 C.3     252      M_A    0.0000
   1766 C         131.2499  147.5153   70.6365 C.3     252      M_A    0.0000
   1767 O         131.2801  146.1918   71.1687 O.3     252      M_A    0.0000
   1768 H         129.6784  147.0151   69.2451 H       252      M_A    0.0000
   1769 H         131.2846  146.9195   68.5547 H       252      M_A    0.0000
   1770 H         130.6124  148.1030   71.3092 H       252      M_A    0.0000
   1771 H         132.2427  147.9872   70.6634 H       252      M_A    0.0000
   1772 C         131.7727  145.2595   70.2313 C.3     253      M_A    0.0000
   1773 C         132.5201  144.1151   70.9086 C.3     253      M_A    0.0000
   1774 O         132.4856  142.9455   70.0921 O.3     253      M_A    0.0000
   1775 H         130.9380  144.8585   69.6438 H       253      M_A    0.0000
   1776 H         132.4268  145.7711   69.5162 H       253      M_A    0.0000
   1777 H         132.0219  143.8484   71.8495 H       253      M_A    0.0000
   1778 H         133.5497  144.3952   71.1745 H       253      M_A    0.0000
   1779 C         132.9996  141.8182   70.7668 C.3     254      M_A    0.0000
   1780 C         133.8817  140.9671   69.8587 C.3     254      M_A    0.0000
   1781 O         134.7745  140.1705   70.6359 O.3     254      M_A    0.0000
   1782 H         133.5773  142.1479   71.6387 H       254      M_A    0.0000
   1783 H         132.1711  141.2198   71.1625 H       254      M_A    0.0000
   1784 H         134.5107  141.6148   69.2349 H       254      M_A    0.0000
   1785 H         133.2887  140.3538   69.1647 H       254      M_A    0.0000
   1786 C         134.6313  138.7952   70.3557 C.3     255      M_A    0.0000
   1787 C         135.7103  137.9617   71.0399 C.3     255      M_A    0.0000
   1788 O         135.3078  136.5951   71.1198 O.3     255      M_A    0.0000
   1789 H         133.6408  138.4581   70.6843 H       255      M_A    0.0000
   1790 H         134.6591  138.6382   69.2715 H       255      M_A    0.0000
   1791 H         135.8468  138.3032   72.0739 H       255      M_A    0.0000
   1792 H         136.6881  138.0696   70.5487 H       255      M_A    0.0000
   1793 C         136.2406  135.8134   71.8336 C.3     256      M_A    0.0000
   1794 C         136.5273  134.4901   71.1308 C.3     256      M_A    0.0000
   1795 O         137.7499  133.9286   71.6061 O.3     256      M_A    0.0000
   1796 H         137.1733  136.3779   71.9522 H       256      M_A    0.0000
   1797 H         135.8661  135.6328   72.8476 H       256      M_A    0.0000
   1798 H         136.6643  134.6602   70.0553 H       256      M_A    0.0000
   1799 H         135.6908  133.7828   71.2262 H       256      M_A    0.0000
   1800 C         137.6010  132.5723   71.9645 C.3     257      M_A    0.0000
   1801 C         138.8570  131.7631   71.6566 C.3     257      M_A    0.0000
   1802 O         138.9366  130.6230   72.5107 O.3     257      M_A    0.0000
   1803 H         137.3697  132.5018   73.0342 H       257      M_A    0.0000
   1804 H         136.7369  132.1484   71.4404 H       257      M_A    0.0000
   1805 H         139.7502  132.3661   71.8640 H       257      M_A    0.0000
   1806 H         138.9160  131.4812   70.5953 H       257      M_A    0.0000
   1807 C         139.4852  129.5058   71.8462 C.3     258      M_A    0.0000
   1808 C         140.2089  128.5713   72.8106 C.3     258      M_A    0.0000
   1809 O         140.2284  127.2411   72.2946 O.3     258      M_A    0.0000
   1810 H         138.6853  128.9588   71.3328 H       258      M_A    0.0000
   1811 H         140.1694  129.8471   71.0611 H       258      M_A    0.0000
   1812 H         139.6660  128.5239   73.7632 H       258      M_A    0.0000
   1813 H         141.2205  128.9293   73.0507 H       258      M_A    0.0000
   1814 C         140.5416  126.2948   73.2929 C.3     259      M_A    0.0000
   1815 C         141.5104  125.2322   72.7832 C.3     259      M_A    0.0000
   1816 O         142.0581  124.4934   73.8741 O.3     259      M_A    0.0000
   1817 H         140.9791  126.8087   74.1572 H       259      M_A    0.0000
   1818 H         139.6193  125.8267   73.6552 H       259      M_A    0.0000
   1819 H         142.3592  125.7115   72.2790 H       259      M_A    0.0000
   1820 H         141.0434  124.5717   72.0384 H       259      M_A    0.0000
   1821 C         142.3952  123.1757   73.4997 C.3     260      M_A    0.0000
   1822 C         143.8482  122.8468   73.8284 C.3     260      M_A    0.0000
   1823 O         143.9922  121.4557   74.1110 O.3     260      M_A    0.0000
   1824 H         141.7318  122.4701   74.0142 H       260      M_A    0.0000
   1825 H         142.2072  123.0405   72.4286 H       260      M_A    0.0000
   1826 H         144.1552  123.3790   74.7377 H       260      M_A    0.0000
   1827 H         144.5348  123.1737   73.0341 H       260      M_A    0.0000
   1828 C         144.1931  120.6991   72.9373 C.3     261      M_A    0.0000
   1829 C         144.7943  119.3303   73.2409 C.3     261      M_A    0.0000
   1830 O         144.7274  118.4905   72.0893 O.3     261      M_A    0.0000
   1831 H         143.2362  120.5744   72.4163 H       261      M_A    0.0000
   1832 H         144.8407  121.2554   72.2501 H       261      M_A    0.0000
   1833 H         144.2078  118.8294   74.0216 H       261      M_A    0.0000
   1834 H         145.8203  119.4074   73.6288 H       261      M_A    0.0000
   1835 C         145.1094  117.1645   72.3829 C.3     262      M_A    0.0000
   1836 C         145.9600  117.0860   73.6468 C.3     262      M_A    0.0000
   1837 O         146.1426  115.7268   74.0405 O.3     262      M_A    0.0000
   1838 H         144.2122  116.5454   72.5029 H       262      M_A    0.0000
   1839 H         145.6546  116.7439   71.5303 H       262      M_A    0.0000
   1840 H         145.4409  117.5801   74.4779 H       262      M_A    0.0000
   1841 H         146.9207  117.6082   73.5304 H       262      M_A    0.0000
   1842 C         146.3317  114.8786   72.9291 C.3     263      M_A    0.0000
   1843 C         147.2335  113.6951   73.2658 C.3     263      M_A    0.0000
   1844 O         146.5674  112.4654   72.9830 O.3     263      M_A    0.0000
   1845 H         145.3583  114.5133   72.5802 H       263      M_A    0.0000
   1846 H         146.7536  115.4544   72.0975 H       263      M_A    0.0000
   1847 H         147.4526  113.6864   74.3411 H       263      M_A    0.0000
   1848 H         148.2050  113.7584   72.7544 H       263      M_A    0.0000
   1849 C         147.4072  111.3519   73.1959 C.3     264      M_A    0.0000
   1850 C         148.5793  111.6921   74.1111 C.3     264      M_A    0.0000
   1851 O         148.9575  110.5517   74.8806 O.3     264      M_A    0.0000
   1852 H         146.8227  110.5336   73.6336 H       264      M_A    0.0000
   1853 H         147.7724  110.9798   72.2319 H       264      M_A    0.0000
   1854 H         148.2791  112.4637   74.8315 H       264      M_A    0.0000
   1855 H         149.4312  112.1070   73.5532 H       264      M_A    0.0000
   1856 C         149.8025  109.6852   74.1556 C.3     265      M_A    0.0000
   1857 C         150.2412  108.4883   74.9936 C.3     265      M_A    0.0000
   1858 O         150.5682  107.3839   74.1515 O.3     265      M_A    0.0000
   1859 H         149.2801  109.3350   73.2572 H       265      M_A    0.0000
   1860 H         150.6769  110.2412   73.7989 H       265      M_A    0.0000
   1861 H         149.4124  108.1546   75.6310 H       265      M_A    0.0000
   1862 H         151.0686  108.7412   75.6723 H       265      M_A    0.0000
   1863 C         150.6852  106.1827   74.8819 C.3     266      M_A    0.0000
   1864 C         152.0887  105.5931   74.7829 C.3     266      M_A    0.0000
   1865 O         152.3123  104.6598   75.8388 O.3     266      M_A    0.0000
   1866 H         150.4372  106.3705   75.9335 H       266      M_A    0.0000
   1867 H         149.9429  105.4616   74.5210 H       266      M_A    0.0000
   1868 H         152.8368  106.3860   74.9094 H       266      M_A    0.0000
   1869 H         152.2791  105.1450   73.7970 H       266      M_A    0.0000
   1870 C         152.3717  103.3328   75.3634 C.3     267      M_A    0.0000
   1871 C         153.4292  102.5143   76.0974 C.3     267      M_A    0.0000
   1872 O         153.1253  101.1224   76.0180 O.3     267      M_A    0.0000
   1873 H         151.3899  102.8591   75.4829 H       267      M_A    0.0000
   1874 H         152.5747  103.3391   74.2865 H       267      M_A    0.0000
   1875 H         153.4253  102.7698   77.1647 H       267      M_A    0.0000
   1876 H         154.4441  102.7303   75.7332 H       267      M_A    0.0000
   1877 C         154.2543  100.3216   76.2906 C.3     268      M_A    0.0000
   1878 C         153.8892   98.8443   76.3978 C.3     268      M_A    0.0000
   1879 O         155.0205   98.0287   76.0964 O.3     268      M_A    0.0000
   1880 H         154.9993  100.4610   75.4980 H       268      M_A    0.0000
   1881 H         154.7307  100.6642   77.2162 H       268      M_A    0.0000
   1882 H         153.1223   98.5939   75.6537 H       268      M_A    0.0000
   1883 H         153.4587   98.5960   77.3787 H       268      M_A    0.0000
   1884 C         155.4077   98.1458   74.7449 C.3     269      M_A    0.0000
   1885 C         156.5337   97.1790   74.3916 C.3     269      M_A    0.0000
   1886 O         156.0047   95.8909   74.0806 O.3     269      M_A    0.0000
   1887 H         154.5414   97.9545   74.1002 H       269      M_A    0.0000
   1888 H         155.7139   99.1780   74.5404 H       269      M_A    0.0000
   1889 H         157.1925   97.0401   75.2583 H       269      M_A    0.0000
   1890 H         157.1690   97.5644   73.5810 H       269      M_A    0.0000
   1891 C         156.3446   94.9329   75.0589 C.3     270      M_A    0.0000
   1892 C         156.1966   95.4884   76.4720 C.3     270      M_A    0.0000
   1893 O         156.0792   94.4244   77.4154 O.3     270      M_A    0.0000
   1894 H         155.7054   94.0496   74.9408 H       270      M_A    0.0000
   1895 H         157.3710   94.5873   74.8911 H       270      M_A    0.0000
   1896 H         155.2702   96.0717   76.5491 H       270      M_A    0.0000
   1897 H         157.0149   96.1749   76.7330 H       270      M_A    0.0000
   1898 C         157.3331   93.8580   77.7274 C.3     271      M_A    0.0000
   1899 C         157.4033   92.3852   77.3357 C.3     271      M_A    0.0000
   1900 O         158.7605   91.9481   77.2836 O.3     271      M_A    0.0000
   1901 H         158.1232   94.4154   77.2100 H       271      M_A    0.0000
   1902 H         157.5317   93.9770   78.7985 H       271      M_A    0.0000
   1903 H         156.9965   92.2473   76.3258 H       271      M_A    0.0000
   1904 H         156.7975   91.7525   78.0003 H       271      M_A    0.0000
   1905 C         158.8593   90.5408   77.2717 C.3     272      M_A    0.0000
   1906 C         160.2072   90.0623   77.8021 C.3     272      M_A    0.0000
   1907 O         160.1053   88.7239   78.2860 O.3     272      M_A    0.0000
   1908 H         158.0516   90.1141   77.8785 H       272      M_A    0.0000
   1909 H         158.6983   90.1716   76.2525 H       272      M_A    0.0000
   1910 H         160.5113   90.6771   78.6588 H       272      M_A    0.0000
   1911 H         161.0050   90.1639   77.0521 H       272      M_A    0.0000
   1912 C         159.2188   87.9499   77.5080 C.3     273      M_A    0.0000
   1913 C         159.7778   86.5586   77.2270 C.3     273      M_A    0.0000
   1914 O         159.2762   85.6192   78.1766 O.3     273      M_A    0.0000
   1915 H         158.2579   87.8630   78.0293 H       273      M_A    0.0000
   1916 H         159.0062   88.4718   76.5681 H       273      M_A    0.0000
   1917 H         160.8688   86.5632   77.3455 H       273      M_A    0.0000
   1918 H         159.5820   86.2365   76.1939 H       273      M_A    0.0000
   1919 C         160.0000   84.4085   78.1510 C.3     274      M_A    0.0000
   1920 C         161.3913   84.5667   78.7563 C.3     274      M_A    0.0000
   1921 O         161.9346   83.2916   79.0955 O.3     274      M_A    0.0000
   1922 H         159.4435   83.6401   78.7010 H       274      M_A    0.0000
   1923 H         160.0726   84.0478   77.1187 H       274      M_A    0.0000
   1924 H         161.3287   85.1338   79.6938 H       274      M_A    0.0000
   1925 H         162.0653   85.1339   78.0982 H       274      M_A    0.0000
   1926 C         162.1368   82.4863   77.9549 C.3     275      M_A    0.0000
   1927 C         163.3100   81.5285   78.1377 C.3     275      M_A    0.0000
   1928 O         162.8600   80.1752   78.0905 O.3     275      M_A    0.0000
   1929 H         161.2238   81.9158   77.7458 H       275      M_A    0.0000
   1930 H         162.3001   83.1258   77.0801 H       275      M_A    0.0000
   1931 H         163.7567   81.6698   79.1301 H       275      M_A    0.0000
   1932 H         164.1125   81.7158   77.4097 H       275      M_A    0.0000
   1933 C         163.5110   79.3712   79.0496 C.3     276      M_A    0.0000
   1934 C         165.0275   79.5224   78.9813 C.3     276      M_A    0.0000
   1935 O         165.6617   78.5701   79.8338 O.3     276      M_A    0.0000
   1936 H         163.1580   79.6423   80.0519 H       276      M_A    0.0000
   1937 H         163.2258   78.3233   78.9024 H       276      M_A    0.0000
   1938 H         165.3215   80.5122   79.3531 H       276      M_A    0.0000
   1939 H         165.4023   79.4576   77.9495 H       276      M_A    0.0000
   1940 C         165.9215   77.3559   79.1639 C.3     277      M_A    0.0000
   1941 C         166.6829   76.3725   80.0472 C.3     277      M_A    0.0000
   1942 O         166.4938   75.0366   79.5828 O.3     277      M_A    0.0000
   1943 H         164.9736   76.9069   78.8438 H       277      M_A    0.0000
   1944 H         166.4848   77.5582   78.2459 H       277      M_A    0.0000
   1945 H         166.2844   76.4023   81.0693 H       277      M_A    0.0000
   1946 H         167.7494   76.6287   80.1253 H       277      M_A    0.0000
   1947 C         167.1913   74.1010   80.3755 C.3     278      M_A    0.0000
   1948 C         167.6696   72.9072   79.5549 C.3     278      M_A    0.0000
   1949 O         168.7430   72.2434   80.2205 O.3     278      M_A    0.0000
   1950 H         168.0507   74.5925   80.8471 H       278      M_A    0.0000
   1951 H         166.5476   73.7654   81.1964 H       278      M_A    0.0000
   1952 H         168.0699   73.2514   78.5928 H       278      M_A    0.0000
   1953 H         166.8489   72.2152   79.3167 H       278      M_A    0.0000
   1954 C         169.9000   73.0483   80.2838 C.3     279      M_A    0.0000
   1955 C         171.1533   72.2199   80.5487 C.3     279      M_A    0.0000
   1956 O         171.5959   72.4025   81.8928 O.3     279      M_A    0.0000
   1957 H         170.0132   73.5976   79.3414 H       279      M_A    0.0000
   1958 H         169.7743   73.8085   81.0630 H       279      M_A    0.0000
   1959 H         171.9725   72.5655   79.9053 H       279      M_A    0.0000
   1960 H         171.0030   71.1569   80.3109 H       279      M_A    0.0000
   1961 C         170.9498   71.5195   82.7833 C.3     280      M_A    0.0000
   1962 C         171.3510   70.0688   82.5346 C.3     280      M_A    0.0000
   1963 O         170.6153   69.1951   83.3896 O.3     280      M_A    0.0000
   1964 H         171.1956   71.7985   83.8150 H       280      M_A    0.0000
   1965 H         169.8640   71.6356   82.6899 H       280      M_A    0.0000
   1966 H         172.4097   69.9256   82.7856 H       280      M_A    0.0000
   1967 H         171.2449   69.7872   81.4769 H       280      M_A    0.0000
   1968 C         170.2365   68.0081   82.7278 C.3     281      M_A    0.0000
   1969 C         171.4174   67.3527   82.0184 C.3     281      M_A    0.0000
   1970 O         171.2432   65.9375   81.9652 O.3     281      M_A    0.0000
   1971 H         169.8073   67.3075   83.4541 H       281      M_A    0.0000
   1972 H         169.4367   68.2282   82.0116 H       281      M_A    0.0000
   1973 H         172.3393   67.5281   82.5875 H       281      M_A    0.0000
   1974 H         171.5869   67.7795   81.0193 H       281      M_A    0.0000
   1975 C         171.1602   65.3694   83.2538 C.3     282      M_A    0.0000
   1976 C         171.7590   63.9669   83.2950 C.3     282      M_A    0.0000
   1977 O         173.0800   64.0050   83.8327 O.3     282      M_A    0.0000
   1978 H         171.6825   66.0147   83.9704 H       282      M_A    0.0000
   1979 H         170.1131   65.3460   83.5763 H       282      M_A    0.0000
   1980 H         171.8528   63.5706   82.2759 H       282      M_A    0.0000
   1981 H         171.1176   63.2606   83.8418 H       282      M_A    0.0000
   1982 C         173.4203   62.7969   84.4770 C.3     283      M_A    0.0000
   1983 C         173.6632   61.6702   83.4777 C.3     283      M_A    0.0000
   1984 O         174.8680   60.9746   83.7948 O.3     283      M_A    0.0000
   1985 H         174.3192   62.9500   85.0862 H       283      M_A    0.0000
   1986 H         172.6245   62.5195   85.1776 H       283      M_A    0.0000
   1987 H         173.8037   62.0865   82.4720 H       283      M_A    0.0000
   1988 H         172.8046   60.9865   83.4103 H       283      M_A    0.0000
   1989 C         175.3435   60.2214   82.7007 C.3     284      M_A    0.0000
   1990 C         175.2609   58.7214   82.9662 C.3     284      M_A    0.0000
   1991 O         175.6299   57.9881   81.7991 O.3     284      M_A    0.0000
   1992 H         174.7598   60.4704   81.8063 H       284      M_A    0.0000
   1993 H         176.3763   60.5123   82.4779 H       284      M_A    0.0000
   1994 H         174.2251   58.4384   83.1927 H       284      M_A    0.0000
   1995 H         175.8591   58.4236   83.8395 H       284      M_A    0.0000
   1996 C         175.0736   56.6917   81.7953 C.3     285      M_A    0.0000
   1997 C         176.1257   55.6222   82.0719 C.3     285      M_A    0.0000
   1998 O         175.5088   54.4305   82.5569 O.3     285      M_A    0.0000
   1999 H         174.2809   56.6336   82.5508 H       285      M_A    0.0000
   2000 H         174.5861   56.5059   80.8315 H       285      M_A    0.0000
   2001 H         176.8044   55.9619   82.8646 H       285      M_A    0.0000
   2002 H         176.7548   55.4253   81.1918 H       285      M_A    0.0000
   2003 C         176.3928   53.3314   82.5268 C.3     286      M_A    0.0000
   2004 C         177.7307   53.6616   83.1812 C.3     286      M_A    0.0000
   2005 O         178.3690   52.4701   83.6381 O.3     286      M_A    0.0000
   2006 H         175.9314   52.4792   83.0401 H       286      M_A    0.0000
   2007 H         176.5447   53.0127   81.4893 H       286      M_A    0.0000
   2008 H         177.5683   54.2842   84.0703 H       286      M_A    0.0000
   2009 H         178.3838   54.2427   82.5140 H       286      M_A    0.0000
   2010 C         177.6578   51.8654   84.6958 C.3     287      M_A    0.0000
   2011 C         177.8834   50.3573   84.7417 C.3     287      M_A    0.0000
   2012 O         179.0287   50.0492   85.5350 O.3     287      M_A    0.0000
   2013 H         177.9686   52.3141   85.6469 H       287      M_A    0.0000
   2014 H         176.5896   52.0875   84.5921 H       287      M_A    0.0000
   2015 H         178.0971   49.9806   83.7333 H       287      M_A    0.0000
   2016 H         176.9908   49.8172   85.0891 H       287      M_A    0.0000
   2017 C         179.8975   49.1528   84.8778 C.3     288      M_A    0.0000
   2018 C         180.5905   49.8058   83.6859 C.3     288      M_A    0.0000
   2019 O         181.7153   49.0289   83.2769 O.3     288      M_A    0.0000
   2020 H         180.6497   48.7885   85.5878 H       288      M_A    0.0000
   2021 H         179.3351   48.2696   84.5543 H       288      M_A    0.0000
   2022 H         180.9840   50.7887   83.9748 H       288      M_A    0.0000
   2023 H         179.8958   49.9855   82.8526 H       288      M_A    0.0000
   2024 C         181.3581   47.6926   82.9996 C.3     289      M_A    0.0000
   2025 C         182.1185   46.7075   83.8820 C.3     289      M_A    0.0000
   2026 O         181.5314   45.4097   83.8000 O.3     289      M_A    0.0000
   2027 H         180.2792   47.5655   83.1497 H       289      M_A    0.0000
   2028 H         181.5430   47.4768   81.9412 H       289      M_A    0.0000
   2029 H         182.0440   47.0131   84.9335 H       289      M_A    0.0000
   2030 H         183.1918   46.6841   83.6439 H       289      M_A    0.0000
   2031 C         182.0874   44.5207   84.7439 C.3     290      M_A    0.0000
   2032 C         182.7073   43.2979   84.0748 C.3     290      M_A    0.0000
   2033 O         183.6359   42.6660   84.9547 O.3     290      M_A    0.0000
   2034 H         182.8494   45.0451   85.3329 H       290      M_A    0.0000
   2035 H         181.3136   44.2134   85.4566 H       290      M_A    0.0000
   2036 H         183.2811   43.6060   83.1915 H       290      M_A    0.0000
   2037 H         181.9437   42.5931   83.7151 H       290      M_A    0.0000
   2038 C         183.5517   41.2594   84.8857 C.3     291      M_A    0.0000
   2039 C         184.8642   40.6347   84.4230 C.3     291      M_A    0.0000
   2040 O         185.0457   39.3541   85.0255 O.3     291      M_A    0.0000
   2041 H         183.2813   40.8622   85.8715 H       291      M_A    0.0000
   2042 H         182.7360   40.9747   84.2115 H       291      M_A    0.0000
   2043 H         185.7090   41.2526   84.7531 H       291      M_A    0.0000
   2044 H         184.9318   40.5817   83.3268 H       291      M_A    0.0000
   2045 C         185.2609   38.3459   84.0623 C.3     292      M_A    0.0000
   2046 C         186.0157   37.1556   84.6460 C.3     292      M_A    0.0000
   2047 O         185.7577   35.9789   83.8814 O.3     292      M_A    0.0000
   2048 H         184.2955   38.0113   83.6639 H       292      M_A    0.0000
   2049 H         185.8098   38.7646   83.2112 H       292      M_A    0.0000
   2050 H         185.6567   36.9474   85.6620 H       292      M_A    0.0000
   2051 H         187.0934   37.3544   84.7354 H       292      M_A    0.0000
   2052 C         186.5897   34.9075   84.2688 C.3     293      M_A    0.0000
   2053 C         186.9933   35.0049   85.7368 C.3     293      M_A    0.0000
   2054 O         187.3034   33.7121   86.2548 O.3     293      M_A    0.0000
   2055 H         186.0682   33.9592   84.0917 H       293      M_A    0.0000
   2056 H         187.4798   34.8863   83.6298 H       293      M_A    0.0000
   2057 H         186.1512   35.3809   86.3316 H       293      M_A    0.0000
   2058 H         187.8196   35.7138   85.8911 H       293      M_A    0.0000
   2059 C         187.8607   32.8708   85.2689 C.3     294      M_A    0.0000
   2060 C         188.7033   31.7575   85.8836 C.3     294      M_A    0.0000
   2061 O         188.6455   30.5843   85.0738 O.3     294      M_A    0.0000
   2062 H         187.0557   32.4340   84.6657 H       294      M_A    0.0000
   2063 H         188.4655   33.4686   84.5775 H       294      M_A    0.0000
   2064 H         188.2943   31.4764   86.8624 H       294      M_A    0.0000
   2065 H         189.7401   32.0767   86.0637 H       294      M_A    0.0000
   2066 C         189.8337   29.8283   85.1582 C.3     295      M_A    0.0000
   2067 C         189.6963   28.6626   86.1325 C.3     295      M_A    0.0000
   2068 O         190.5199   27.5717   85.7231 O.3     295      M_A    0.0000
   2069 H         190.0949   29.4486   84.1631 H       295      M_A    0.0000
   2070 H         190.6613   30.4806   85.4591 H       295      M_A    0.0000
   2071 H         188.6644   28.2890   86.1251 H       295      M_A    0.0000
   2072 H         189.9066   28.9644   87.1688 H       295      M_A    0.0000
   2073 C         191.8334   27.6879   86.2245 C.3     296      M_A    0.0000
   2074 C         192.3691   26.3507   86.7267 C.3     296      M_A    0.0000
   2075 O         193.4496   25.9076   85.9070 O.3     296      M_A    0.0000
   2076 H         192.4905   28.0762   85.4370 H       296      M_A    0.0000
   2077 H         191.8534   28.4323   87.0285 H       296      M_A    0.0000
   2078 H         191.5889   25.5827   86.6492 H       296      M_A    0.0000
   2079 H         192.6544   26.3932   87.7879 H       296      M_A    0.0000
   2080 C         194.0697   24.7546   86.4329 C.3     297      M_A    0.0000
   2081 C         193.1346   23.9782   87.3548 C.3     297      M_A    0.0000
   2082 O         193.1977   22.5821   87.0671 O.3     297      M_A    0.0000
   2083 H         194.3954   24.1086   85.6087 H       297      M_A    0.0000
   2084 H         194.9811   25.0421   86.9693 H       297      M_A    0.0000
   2085 H         192.0955   24.2827   87.1757 H       297      M_A    0.0000
   2086 H         193.3368   24.1843   88.4159 H       297      M_A    0.0000
   2087 C         193.9581   21.8816   88.0270 C.3     298      M_A    0.0000
   2088 C         194.2026   20.4345   87.6108 C.3     298      M_A    0.0000
   2089 O         195.3915   19.9348   88.2214 O.3     298      M_A    0.0000
   2090 H         194.9184   22.3908   88.1728 H       298      M_A    0.0000
   2091 H         193.4471   21.9180   88.9957 H       298      M_A    0.0000
   2092 H         194.3669   20.3800   86.5270 H       298      M_A    0.0000
   2093 H         193.3356   19.7923   87.8230 H       298      M_A    0.0000
   2094 C         195.4671   18.5278   88.1506 C.3     299      M_A    0.0000
   2095 C         194.7931   17.9860   86.8939 C.3     299      M_A    0.0000
   2096 O         195.3550   16.7256   86.5314 O.3     299      M_A    0.0000
   2097 H         196.5192   18.2186   88.1675 H       299      M_A    0.0000
   2098 H         195.0100   18.0916   89.0461 H       299      M_A    0.0000
   2099 H         194.9802   18.6609   86.0490 H       299      M_A    0.0000
   2100 H         193.7006   17.9275   87.0046 H       299      M_A    0.0000
   2101 C         195.8043   16.0067   87.6591 C.3     300      M_A    0.0000
   2102 C         195.8963   14.5101   87.3780 C.3     300      M_A    0.0000
   2103 O         195.4843   13.7624   88.5212 O.3     300      M_A    0.0000
   2104 H         196.7869   16.3858   87.9647 H       300      M_A    0.0000
   2105 H         195.1322   16.1948   88.5041 H       300      M_A    0.0000
   2106 H         196.9398   14.2294   87.1862 H       300      M_A    0.0000
   2107 H         195.3307   14.2238   86.4794 H       300      M_A    0.0000
   2108 C         194.7117   14.5414   89.4081 C.3     301      M_A    0.0000
   2109 C         195.2671   15.9548   89.5529 C.3     301      M_A    0.0000
   2110 O         194.3052   16.8067   90.1731 O.3     301      M_A    0.0000
   2111 H         193.6774   14.5867   89.0462 H       301      M_A    0.0000
   2112 H         194.6680   14.0474   90.3854 H       301      M_A    0.0000
   2113 H         195.4633   16.3826   88.5614 H       301      M_A    0.0000
   2114 H         196.2272   15.9676   90.0888 H       301      M_A    0.0000
   2115 C         193.1761   17.0098   89.3520 C.3     302      M_A    0.0000
   2116 C         191.9188   17.2791   90.1730 C.3     302      M_A    0.0000
   2117 O         190.9284   17.9208   89.3709 O.3     302      M_A    0.0000
   2118 H         193.3639   17.8537   88.6772 H       302      M_A    0.0000
   2119 H         193.0303   16.1351   88.7081 H       302      M_A    0.0000
   2120 H         192.1487   17.9728   90.9917 H       302      M_A    0.0000
   2121 H         191.5305   16.3647   90.6444 H       302      M_A    0.0000
   2122 C         190.3323   17.0267   88.4569 C.3     303      M_A    0.0000
   2123 C         190.4701   17.5118   87.0171 C.3     303      M_A    0.0000
   2124 O         189.2327   18.0487   86.5520 O.3     303      M_A    0.0000
   2125 H         190.7964   16.0383   88.5592 H       303      M_A    0.0000
   2126 H         189.2755   16.8919   88.7137 H       303      M_A    0.0000
   2127 H         190.7055   16.6659   86.3587 H       303      M_A    0.0000
   2128 H         191.2944   18.2304   86.9012 H       303      M_A    0.0000
   2129 C         188.7646   19.0874   87.3841 C.3     304      M_A    0.0000
   2130 C         189.8495   20.1228   87.6635 C.3     304      M_A    0.0000
   2131 O         189.5309   21.3611   87.0304 O.3     304      M_A    0.0000
   2132 H         187.9037   19.5738   86.9097 H       304      M_A    0.0000
   2133 H         188.3919   18.6634   88.3234 H       304      M_A    0.0000
   2134 H         190.8022   19.7919   87.2306 H       304      M_A    0.0000
   2135 H         190.0293   20.2512   88.7407 H       304      M_A    0.0000
   2136 C         190.6857   22.0298   86.5727 C.3     305      M_A    0.0000
   2137 C         190.7243   22.1177   85.0502 C.3     305      M_A    0.0000
   2138 O         189.5182   22.6966   84.5542 O.3     305      M_A    0.0000
   2139 H         190.7160   23.0387   87.0014 H       305      M_A    0.0000
   2140 H         191.5783   21.5159   86.9472 H       305      M_A    0.0000
   2141 H         190.7822   21.1102   84.6191 H       305      M_A    0.0000
   2142 H         191.6123   22.6575   84.6908 H       305      M_A    0.0000
   2143 C         188.7322   23.2425   85.5907 C.3     306      M_A    0.0000
   2144 C         189.3951   24.4623   86.2229 C.3     306      M_A    0.0000
   2145 O         188.4286   25.2516   86.9148 O.3     306      M_A    0.0000
   2146 H         187.7488   23.5214   85.1934 H       306      M_A    0.0000
   2147 H         188.5443   22.4749   86.3500 H       306      M_A    0.0000
   2148 H         189.8155   25.1067   85.4403 H       306      M_A    0.0000
   2149 H         190.2349   24.1833   86.8757 H       306      M_A    0.0000
   2150 C         187.8863   26.2601   86.0906 C.3     307      M_A    0.0000
   2151 C         186.4190   25.9985   85.7652 C.3     307      M_A    0.0000
   2152 O         185.5876   26.9689   86.4001 O.3     307      M_A    0.0000
   2153 H         187.9860   27.2312   86.5902 H       307      M_A    0.0000
   2154 H         188.4736   26.3335   85.1682 H       307      M_A    0.0000
   2155 H         186.1154   25.0232   86.1665 H       307      M_A    0.0000
   2156 H         186.2384   25.9548   84.6814 H       307      M_A    0.0000
   2157 C         184.9967   27.8461   85.4665 C.3     308      M_A    0.0000
   2158 C         185.0758   29.2991   85.9245 C.3     308      M_A    0.0000
   2159 O         184.4768   30.1596   84.9568 O.3     308      M_A    0.0000
   2160 H         185.4976   27.7371   84.4970 H       308      M_A    0.0000
   2161 H         183.9531   27.5552   85.3013 H       308      M_A    0.0000
   2162 H         186.1255   29.6091   86.0042 H       308      M_A    0.0000
   2163 H         184.6365   29.4413   86.9225 H       308      M_A    0.0000
   2164 C         184.4476   31.5010   85.3928 C.3     309      M_A    0.0000
   2165 C         183.0742   32.1335   85.1900 C.3     309      M_A    0.0000
   2166 O         183.1977   33.3880   84.5215 O.3     309      M_A    0.0000
   2167 H         184.7209   31.5448   86.4539 H       309      M_A    0.0000
   2168 H         185.2138   32.0753   84.8598 H       309      M_A    0.0000
   2169 H         182.6139   32.3472   86.1631 H       309      M_A    0.0000
   2170 H         182.3831   31.4588   84.6643 H       309      M_A    0.0000
   2171 C         181.9421   33.9060   84.1401 C.3     310      M_A    0.0000
   2172 C         181.9363   35.4315   84.1333 C.3     310      M_A    0.0000
   2173 O         181.2801   35.9217   82.9650 O.3     310      M_A    0.0000
   2174 H         181.6817   33.5316   83.1428 H       310      M_A    0.0000
   2175 H         181.1687   33.5253   84.8168 H       310      M_A    0.0000
   2176 H         182.9659   35.8089   84.0894 H       310      M_A    0.0000
   2177 H         181.4957   35.8463   85.0515 H       310      M_A    0.0000
   2178 C         180.6918   37.1852   83.1838 C.3     311      M_A    0.0000
   2179 C         181.4295   38.2915   82.4359 C.3     311      M_A    0.0000
   2180 O         180.5273   39.0143   81.5996 O.3     311      M_A    0.0000
   2181 H         179.6434   37.1589   82.8633 H       311      M_A    0.0000
   2182 H         180.6736   37.3989   84.2585 H       311      M_A    0.0000
   2183 H         182.1833   37.8534   81.7692 H       311      M_A    0.0000
   2184 H         181.9741   38.9590   83.1193 H       311      M_A    0.0000
   2185 C         180.5178   40.3919   81.9039 C.3     312      M_A    0.0000
   2186 C         179.9640   41.2235   80.7511 C.3     312      M_A    0.0000
   2187 O         178.9014   42.0601   81.2062 O.3     312      M_A    0.0000
   2188 H         179.9151   40.5616   82.8042 H       312      M_A    0.0000
   2189 H         181.5336   40.7178   82.1548 H       312      M_A    0.0000
   2190 H         179.5312   40.5637   79.9885 H       312      M_A    0.0000
   2191 H         180.7501   41.8032   80.2459 H       312      M_A    0.0000
   2192 C         179.3806   43.2753   81.7391 C.3     313      M_A    0.0000
   2193 C         180.0157   44.1539   80.6658 C.3     313      M_A    0.0000
   2194 O         179.1620   45.2537   80.3533 O.3     313      M_A    0.0000
   2195 H         178.5535   43.8149   82.2158 H       313      M_A    0.0000
   2196 H         180.1031   43.0653   82.5359 H       313      M_A    0.0000
   2197 H         180.1338   43.5822   79.7365 H       313      M_A    0.0000
   2198 H         181.0234   44.4894   80.9506 H       313      M_A    0.0000
   2199 C         179.5837   46.4424   80.9852 C.3     314      M_A    0.0000
   2200 C         180.6186   47.1916   80.1516 C.3     314      M_A    0.0000
   2201 O         179.9823   47.9077   79.0942 O.3     314      M_A    0.0000
   2202 H         178.7153   47.0881   81.1626 H       314      M_A    0.0000
   2203 H         179.9909   46.2057   81.9748 H       314      M_A    0.0000
   2204 H         181.3007   46.4775   79.6728 H       314      M_A    0.0000
   2205 H         181.2466   47.8505   80.7686 H       314      M_A    0.0000
   2206 C         180.9188   48.4542   78.1915 C.3     315      M_A    0.0000
   2207 C         181.6435   49.6579   78.7857 C.3     315      M_A    0.0000
   2208 O         182.3713   50.3508   77.7727 O.3     315      M_A    0.0000
   2209 H         181.6486   47.6842   77.9138 H       315      M_A    0.0000
   2210 H         180.4098   48.7364   77.2629 H       315      M_A    0.0000
   2211 H         182.3848   49.3217   79.5219 H       315      M_A    0.0000
   2212 H         180.9575   50.3278   79.3240 H       315      M_A    0.0000
   2213 C         182.9768   51.5240   78.2700 C.3     316      M_A    0.0000
   2214 C         181.9412   52.5471   78.7262 C.3     316      M_A    0.0000
   2215 O         182.5738   53.6179   79.4256 O.3     316      M_A    0.0000
   2216 H         183.6352   51.2664   79.1083 H       316      M_A    0.0000
   2217 H         183.6248   51.9559   77.4989 H       316      M_A    0.0000
   2218 H         181.2458   52.0833   79.4373 H       316      M_A    0.0000
   2219 H         181.3276   52.9135   77.8905 H       316      M_A    0.0000
   2220 C         182.3647   54.8585   78.7873 C.3     317      M_A    0.0000
   2221 C         182.6087   56.0308   79.7325 C.3     317      M_A    0.0000
   2222 O         183.1900   57.1265   79.0271 O.3     317      M_A    0.0000
   2223 H         183.0314   54.9387   77.9203 H       317      M_A    0.0000
   2224 H         181.3448   54.8971   78.3883 H       317      M_A    0.0000
   2225 H         183.3329   55.7433   80.5053 H       317      M_A    0.0000
   2226 H         181.6936   56.3291   80.2643 H       317      M_A    0.0000
   2227 C         184.1042   57.8419   79.8289 C.3     318      M_A    0.0000
   2228 C         184.4100   59.2194   79.2489 C.3     318      M_A    0.0000
   2229 O         185.8002   59.5153   79.3750 O.3     318      M_A    0.0000
   2230 H         183.6942   57.9501   80.8402 H       318      M_A    0.0000
   2231 H         185.0272   57.2612   79.9379 H       318      M_A    0.0000
   2232 H         183.8781   59.9915   79.8193 H       318      M_A    0.0000
   2233 H         184.0667   59.3143   78.2086 H       318      M_A    0.0000
   2234 C         186.3261   60.0812   78.1945 C.3     319      M_A    0.0000
   2235 C         185.5200   61.2935   77.7387 C.3     319      M_A    0.0000
   2236 O         186.1192   61.8855   76.5870 O.3     319      M_A    0.0000
   2237 H         187.3690   60.3744   78.3648 H       319      M_A    0.0000
   2238 H         186.3512   59.3218   77.4047 H       319      M_A    0.0000
   2239 H         185.5289   62.0636   78.5206 H       319      M_A    0.0000
   2240 H         184.4632   61.0443   77.5646 H       319      M_A    0.0000
   2241 C         185.2441   61.8850   75.4804 C.3     320      M_A    0.0000
   2242 C         183.9837   62.6997   75.7538 C.3     320      M_A    0.0000
   2243 O         183.4207   63.1714   74.5305 O.3     320      M_A    0.0000
   2244 H         185.7641   62.2924   74.6051 H       320      M_A    0.0000
   2245 H         184.9818   60.8528   75.2223 H       320      M_A    0.0000
   2246 H         184.2355   63.5921   76.3409 H       320      M_A    0.0000
   2247 H         183.2499   62.1370   76.3489 H       320      M_A    0.0000
   2248 C         183.5867   62.2416   73.4826 C.3     321      M_A    0.0000
   2249 C         182.5110   62.3957   72.4119 C.3     321      M_A    0.0000
   2250 O         182.9708   63.2465   71.3629 O.3     321      M_A    0.0000
   2251 H         184.5776   62.3743   73.0318 H       321      M_A    0.0000
   2252 H         183.5746   61.2246   73.8908 H       321      M_A    0.0000
   2253 H         181.6260   62.8843   72.8390 H       321      M_A    0.0000
   2254 H         182.1700   61.4236   72.0271 H       321      M_A    0.0000
   2255 C         181.9159   63.9810   70.7815 C.3     322      M_A    0.0000
   2256 C         181.5892   65.2366   71.5840 C.3     322      M_A    0.0000
   2257 O         181.4974   66.3692   70.7212 O.3     322      M_A    0.0000
   2258 H         182.1879   64.2590   69.7561 H       322      M_A    0.0000
   2259 H         181.0294   63.3424   70.6960 H       322      M_A    0.0000
   2260 H         182.4025   65.4516   72.2889 H       322      M_A    0.0000
   2261 H         180.6807   65.1131   72.1911 H       322      M_A    0.0000
   2262 C         181.8982   67.5569   71.3686 C.3     323      M_A    0.0000
   2263 C         180.7282   68.5144   71.5722 C.3     323      M_A    0.0000
   2264 O         181.1354   69.6403   72.3484 O.3     323      M_A    0.0000
   2265 H         182.3455   67.3094   72.3388 H       323      M_A    0.0000
   2266 H         182.6899   68.0415   70.7861 H       323      M_A    0.0000
   2267 H         179.9338   68.0176   72.1438 H       323      M_A    0.0000
   2268 H         180.2751   68.8206   70.6182 H       323      M_A    0.0000
   2269 C         180.0395   70.4488   72.7167 C.3     324      M_A    0.0000
   2270 C         179.9896   71.7400   71.9059 C.3     324      M_A    0.0000
   2271 O         178.7625   72.4289   72.1417 O.3     324      M_A    0.0000
   2272 H         179.1086   69.8871   72.5737 H       324      M_A    0.0000
   2273 H         180.0948   70.6737   73.7879 H       324      M_A    0.0000
   2274 H         180.0116   71.5089   70.8333 H       324      M_A    0.0000
   2275 H         180.8605   72.3827   72.0999 H       324      M_A    0.0000
   2276 C         178.8377   73.7836   71.7552 C.3     325      M_A    0.0000
   2277 C         179.9976   74.0365   70.7971 C.3     325      M_A    0.0000
   2278 O         179.8357   75.2926   70.1399 O.3     325      M_A    0.0000
   2279 H         177.8949   74.0792   71.2794 H       325      M_A    0.0000
   2280 H         178.9361   74.4132   72.6468 H       325      M_A    0.0000
   2281 H         180.0029   73.2744   70.0075 H       325      M_A    0.0000
   2282 H         180.9721   73.9639   71.3012 H       325      M_A    0.0000
   2283 C         181.0305   75.7217   69.5247 C.3     326      M_A    0.0000
   2284 C         180.9788   77.2009   69.1554 C.3     326      M_A    0.0000
   2285 O         182.2804   77.6743   68.8123 O.3     326      M_A    0.0000
   2286 H         181.8740   75.5397   70.2015 H       326      M_A    0.0000
   2287 H         181.2219   75.1132   68.6336 H       326      M_A    0.0000
   2288 H         180.6551   77.7914   70.0220 H       326      M_A    0.0000
   2289 H         180.2496   77.4014   68.3570 H       326      M_A    0.0000
   2290 C         182.2236   78.8425   68.0233 C.3     327      M_A    0.0000
   2291 C         181.0793   79.7580   68.4469 C.3     327      M_A    0.0000
   2292 O         181.0296   80.9127   67.6103 O.3     327      M_A    0.0000
   2293 H         183.1756   79.3812   68.1018 H       327      M_A    0.0000
   2294 H         182.1194   78.5661   66.9679 H       327      M_A    0.0000
   2295 H         181.2518   80.1241   69.4670 H       327      M_A    0.0000
   2296 H         180.1151   79.2298   68.4687 H       327      M_A    0.0000
   2297 C         180.1093   81.8691   68.0886 C.3     328      M_A    0.0000
   2298 C         178.7085   81.2835   68.2370 C.3     328      M_A    0.0000
   2299 O         177.8485   82.2110   68.8973 O.3     328      M_A    0.0000
   2300 H         180.4533   82.2527   69.0567 H       328      M_A    0.0000
   2301 H         180.0922   82.7306   67.4115 H       328      M_A    0.0000
   2302 H         178.7426   80.3893   68.8723 H       328      M_A    0.0000
   2303 H         178.2927   80.9594   67.2719 H       328      M_A    0.0000
   2304 C         177.2620   83.1202   67.9919 C.3     329      M_A    0.0000
   2305 C         177.1256   84.5142   68.5964 C.3     329      M_A    0.0000
   2306 O         177.3909   85.5121   67.6116 O.3     329      M_A    0.0000
   2307 H         177.8709   83.1709   67.0813 H       329      M_A    0.0000
   2308 H         176.2817   82.7433   67.6789 H       329      M_A    0.0000
   2309 H         177.8750   84.6541   69.3859 H       329      M_A    0.0000
   2310 H         176.1457   84.6631   69.0726 H       329      M_A    0.0000
   2311 C         177.8977   86.6964   68.1868 C.3     330      M_A    0.0000
   2312 C         176.9876   87.8912   67.9196 C.3     330      M_A    0.0000
   2313 O         177.3268   88.9778   68.7800 O.3     330      M_A    0.0000
   2314 H         178.0133   86.5553   69.2682 H       330      M_A    0.0000
   2315 H         178.9040   86.8899   67.7984 H       330      M_A    0.0000
   2316 H         175.9477   87.6281   68.1513 H       330      M_A    0.0000
   2317 H         177.0005   88.1909   66.8616 H       330      M_A    0.0000
   2318 C         176.7615   90.1930   68.3396 C.3     331      M_A    0.0000
   2319 C         175.2902   90.0331   67.9698 C.3     331      M_A    0.0000
   2320 O         174.5604   91.2111   68.3099 O.3     331      M_A    0.0000
   2321 H         176.8639   90.9487   69.1277 H       331      M_A    0.0000
   2322 H         177.3305   90.5716   67.4829 H       331      M_A    0.0000
   2323 H         174.8451   89.2165   68.5524 H       331      M_A    0.0000
   2324 H         175.1578   89.7639   66.9119 H       331      M_A    0.0000
   2325 C         173.1695   91.0296   68.1590 C.3     332      M_A    0.0000
   2326 C         172.4159   92.3551   68.2087 C.3     332      M_A    0.0000
   2327 O         171.1867   92.2562   67.4909 O.3     332      M_A    0.0000
   2328 H         172.9695   90.5270   67.2051 H       332      M_A    0.0000
   2329 H         172.8023   90.3534   68.9393 H       332      M_A    0.0000
   2330 H         173.0020   93.1371   67.7092 H       332      M_A    0.0000
   2331 H         172.2577   92.7010   69.2404 H       332      M_A    0.0000
   2332 C         170.5556   93.5105   67.3541 C.3     333      M_A    0.0000
   2333 C         169.1131   93.4767   67.8494 C.3     333      M_A    0.0000
   2334 O         168.6725   94.7904   68.1895 O.3     333      M_A    0.0000
   2335 H         171.1205   94.2652   67.9146 H       333      M_A    0.0000
   2336 H         170.5907   93.8250   66.3049 H       333      M_A    0.0000
   2337 H         169.0478   92.8822   68.7696 H       333      M_A    0.0000
   2338 H         168.4396   92.9967   67.1247 H       333      M_A    0.0000
   2339 C         167.4145   94.7740   68.8279 C.3     334      M_A    0.0000
   2340 C         166.5754   95.9935   68.4592 C.3     334      M_A    0.0000
   2341 O         165.4234   95.5989   67.7155 O.3     334      M_A    0.0000
   2342 H         166.8774   93.8590   68.5503 H       334      M_A    0.0000
   2343 H         167.5561   94.7232   69.9134 H       334      M_A    0.0000
   2344 H         167.1516   96.6593   67.8041 H       334      M_A    0.0000
   2345 H         166.3046   96.5900   69.3424 H       334      M_A    0.0000
   2346 C         164.3704   96.5288   67.8451 C.3     335      M_A    0.0000
   2347 C         164.6953   97.8528   67.1606 C.3     335      M_A    0.0000
   2348 O         163.5150   98.4270   66.6013 O.3     335      M_A    0.0000
   2349 H         163.4556   96.1051   67.4136 H       335      M_A    0.0000
   2350 H         164.1554   96.6919   68.9073 H       335      M_A    0.0000
   2351 H         165.3815   97.6811   66.3215 H       335      M_A    0.0000
   2352 H         165.2065   98.5525   67.8376 H       335      M_A    0.0000
   2353 C         163.3758   99.7869   66.9503 C.3     336      M_A    0.0000
   2354 C         162.2679  100.4668   66.1520 C.3     336      M_A    0.0000
   2355 O         161.4264  101.2281   67.0170 O.3     336      M_A    0.0000
   2356 H         163.1606   99.8672   68.0227 H       336      M_A    0.0000
   2357 H         164.3296  100.3037   66.7944 H       336      M_A    0.0000
   2358 H         161.6250   99.7096   65.6853 H       336      M_A    0.0000
   2359 H         162.6676  101.0793   65.3309 H       336      M_A    0.0000
   2360 C         160.3931  101.8763   66.3081 C.3     337      M_A    0.0000
   2361 C         160.2127  101.2939   64.9097 C.3     337      M_A    0.0000
   2362 O         158.8760  101.4976   64.4541 O.3     337      M_A    0.0000
   2363 H         159.4550  101.7864   66.8690 H       337      M_A    0.0000
   2364 H         160.6076  102.9493   66.2489 H       337      M_A    0.0000
   2365 H         160.3672  100.2076   64.9346 H       337      M_A    0.0000
   2366 H         160.9501  101.6932   64.1984 H       337      M_A    0.0000
   2367 C         158.5722  102.8680   64.3123 C.3     338      M_A    0.0000
   2368 C         157.1683  103.0830   63.7555 C.3     338      M_A    0.0000
   2369 O         157.1620  104.1646   62.8250 O.3     338      M_A    0.0000
   2370 H         158.6627  103.3635   65.2865 H       338      M_A    0.0000
   2371 H         159.3164  103.3420   63.6623 H       338      M_A    0.0000
   2372 H         156.4851  103.3696   64.5652 H       338      M_A    0.0000
   2373 H         156.7545  102.1647   63.3145 H       338      M_A    0.0000
   2374 C         158.1712  104.0243   61.8493 C.3     339      M_A    0.0000
   2375 C         158.3952  102.5635   61.4710 C.3     339      M_A    0.0000
   2376 O         157.7530  102.2660   60.2321 O.3     339      M_A    0.0000
   2377 H         157.8966  104.5988   60.9564 H       339      M_A    0.0000
   2378 H         159.1020  104.4688   62.2196 H       339      M_A    0.0000
   2379 H         157.9349  101.9084   62.2214 H       339      M_A    0.0000
   2380 H         159.4632  102.3025   61.4484 H       339      M_A    0.0000
   2381 C         156.6965  103.1604   59.9596 C.3     340      M_A    0.0000
   2382 C         155.5253  102.4630   59.2747 C.3     340      M_A    0.0000
   2383 O         154.3239  103.2101   59.4595 O.3     340      M_A    0.0000
   2384 H         156.3566  103.6183   60.8964 H       340      M_A    0.0000
   2385 H         157.0658  103.9838   59.3378 H       340      M_A    0.0000
   2386 H         155.3522  101.4826   59.7366 H       340      M_A    0.0000
   2387 H         155.7251  102.2706   58.2106 H       340      M_A    0.0000
   2388 C         153.1937  102.3716   59.5593 C.3     341      M_A    0.0000
   2389 C         151.9359  103.0490   59.0242 C.3     341      M_A    0.0000
   2390 O         150.8309  102.8052   59.8934 O.3     341      M_A    0.0000
   2391 H         153.3782  101.4444   59.0034 H       341      M_A    0.0000
   2392 H         153.0506  102.0737   60.6041 H       341      M_A    0.0000
   2393 H         151.6639  102.6180   58.0523 H       341      M_A    0.0000
   2394 H         152.0882  104.1244   58.8520 H       341      M_A    0.0000
   2395 C         149.7046  103.5783   59.5412 C.3     342      M_A    0.0000
   2396 C         149.9697  104.4383   58.3094 C.3     342      M_A    0.0000
   2397 O         148.8812  105.3325   58.0828 O.3     342      M_A    0.0000
   2398 H         148.8525  102.9146   59.3513 H       342      M_A    0.0000
   2399 H         149.4136  104.2079   60.3897 H       342      M_A    0.0000
   2400 H         150.0367  103.8027   57.4173 H       342      M_A    0.0000
   2401 H         150.9279  104.9733   58.3785 H       342      M_A    0.0000
   2402 C         148.8384  106.3629   59.0455 C.3     343      M_A    0.0000
   2403 C         148.6082  107.7282   58.4051 C.3     343      M_A    0.0000
   2404 O         147.9798  108.6131   59.3314 O.3     343      M_A    0.0000
   2405 H         148.0392  106.1542   59.7668 H       343      M_A    0.0000
   2406 H         149.7712  106.3647   59.6208 H       343      M_A    0.0000
   2407 H         147.9194  107.6314   57.5562 H       343      M_A    0.0000
   2408 H         149.5369  108.1558   58.0003 H       343      M_A    0.0000
   2409 C         148.0647  109.9580   58.9137 C.3     344      M_A    0.0000
   2410 C         149.5010  110.4711   58.9425 C.3     344      M_A    0.0000
   2411 O         149.5712  111.7857   58.3921 O.3     344      M_A    0.0000
   2412 H         147.6602  110.0500   57.8986 H       344      M_A    0.0000
   2413 H         147.4254  110.5797   59.5508 H       344      M_A    0.0000
   2414 H         150.1366  109.8383   58.3100 H       344      M_A    0.0000
   2415 H         149.9337  110.4295   59.9525 H       344      M_A    0.0000
   2416 C         148.9845  112.7444   59.2447 C.3     345      M_A    0.0000
   2417 C         149.3797  114.1658   58.8568 C.3     345      M_A    0.0000
   2418 O         149.2139  115.0488   59.9653 O.3     345      M_A    0.0000
   2419 H         147.8931  112.6425   59.2104 H       345      M_A    0.0000
   2420 H         149.2744  112.5380   60.2812 H       345      M_A    0.0000
   2421 H         148.7146  114.5361   58.0663 H       345      M_A    0.0000
   2422 H         150.3994  114.2133   58.4481 H       345      M_A    0.0000
   2423 C         150.3553  115.8515   60.1731 C.3     346      M_A    0.0000
   2424 C         150.7251  116.6457   58.9242 C.3     346      M_A    0.0000
   2425 O         151.2388  117.9275   59.2833 O.3     346      M_A    0.0000
   2426 H         150.1693  116.5398   61.0064 H       346      M_A    0.0000
   2427 H         151.1947  115.2197   60.4851 H       346      M_A    0.0000
   2428 H         149.8278  116.8317   58.3204 H       346      M_A    0.0000
   2429 H         151.4227  116.0948   58.2769 H       346      M_A    0.0000
   2430 C         151.8419  117.9137   60.5585 C.3     347      M_A    0.0000
   2431 C         152.7030  119.1511   60.7922 C.3     347      M_A    0.0000
   2432 O         152.6373  119.5525   62.1598 O.3     347      M_A    0.0000
   2433 H         151.0633  117.8552   61.3287 H       347      M_A    0.0000
   2434 H         152.4439  117.0045   60.6684 H       347      M_A    0.0000
   2435 H         152.3143  119.9930   60.2052 H       347      M_A    0.0000
   2436 H         153.7410  118.9994   60.4623 H       347      M_A    0.0000
   2437 C         151.4132  120.1848   62.4636 C.3     348      M_A    0.0000
   2438 C         151.4985  121.6981   62.2914 C.3     348      M_A    0.0000
   2439 O         150.3757  122.1793   61.5540 O.3     348      M_A    0.0000
   2440 H         150.6254  119.7834   61.8149 H       348      M_A    0.0000
   2441 H         151.1170  119.9343   63.4886 H       348      M_A    0.0000
   2442 H         152.3875  121.9577   61.7026 H       348      M_A    0.0000
   2443 H         151.6052  122.2174   63.2547 H       348      M_A    0.0000
   2444 C         150.6260  123.4443   60.9816 C.3     349      M_A    0.0000
   2445 C         151.5694  124.2794   61.8416 C.3     349      M_A    0.0000
   2446 O         151.7668  125.5666   61.2584 O.3     349      M_A    0.0000
   2447 H         151.0574  123.3124   59.9819 H       349      M_A    0.0000
   2448 H         149.6774  123.9727   60.8336 H       349      M_A    0.0000
   2449 H         152.5580  123.8045   61.8811 H       349      M_A    0.0000
   2450 H         151.2220  124.3534   62.8823 H       349      M_A    0.0000
   2451 C         150.9616  126.5500   61.8706 C.3     350      M_A    0.0000
   2452 C         150.9474  127.8494   61.0716 C.3     350      M_A    0.0000
   2453 O         150.1023  127.7222   59.9291 O.3     350      M_A    0.0000
   2454 H         149.9383  126.1695   61.9745 H       350      M_A    0.0000
   2455 H         151.3202  126.7335   62.8898 H       350      M_A    0.0000
   2456 H         151.9532  128.0634   60.6882 H       350      M_A    0.0000
   2457 H         150.6649  128.7121   61.6923 H       350      M_A    0.0000
   2458 C         148.7567  128.0149   60.2355 C.3     351      M_A    0.0000
   2459 C         147.8272  127.6978   59.0681 C.3     351      M_A    0.0000
   2460 O         146.4637  127.7822   59.4800 O.3     351      M_A    0.0000
   2461 H         148.4507  127.4394   61.1175 H       351      M_A    0.0000
   2462 H         148.6672  129.0701   60.5177 H       351      M_A    0.0000
   2463 H         147.9848  126.6640   58.7351 H       351      M_A    0.0000
   2464 H         148.0287  128.3360   58.1955 H       351      M_A    0.0000
   2465 C         146.2569  128.8307   60.4010 C.3     352      M_A    0.0000
   2466 C         146.9830  130.1052   59.9819 C.3     352      M_A    0.0000
   2467 O         146.2365  130.7977   58.9823 O.3     352      M_A    0.0000
   2468 H         145.1822  129.0305   60.4897 H       352      M_A    0.0000
   2469 H         146.5881  128.5136   61.3964 H       352      M_A    0.0000
   2470 H         147.9483  129.8523   59.5251 H       352      M_A    0.0000
   2471 H         147.2096  130.7523   60.8415 H       352      M_A    0.0000
   2472 C         145.0236  130.1420   58.6836 C.3     353      M_A    0.0000
   2473 C         144.0004  130.3042   59.8034 C.3     353      M_A    0.0000
   2474 O         142.7307  130.6744   59.2679 O.3     353      M_A    0.0000
   2475 H         144.6139  130.5427   57.7486 H       353      M_A    0.0000
   2476 H         145.2186  129.0798   58.4969 H       353      M_A    0.0000
   2477 H         144.3031  131.1213   60.4706 H       353      M_A    0.0000
   2478 H         143.9302  129.4043   60.4314 H       353      M_A    0.0000
   2479 C         141.8829  131.2198   60.2549 C.3     354      M_A    0.0000
   2480 C         142.0636  132.7288   60.3869 C.3     354      M_A    0.0000
   2481 O         141.4933  133.3988   59.2637 O.3     354      M_A    0.0000
   2482 H         140.8396  130.9938   60.0038 H       354      M_A    0.0000
   2483 H         142.0756  130.7277   61.2149 H       354      M_A    0.0000
   2484 H         143.1322  132.9788   60.3845 H       354      M_A    0.0000
   2485 H         141.6606  133.1109   61.3360 H       354      M_A    0.0000
   2486 C         140.9168  134.6344   59.6258 C.3     355      M_A    0.0000
   2487 C         140.0848  135.2261   58.4923 C.3     355      M_A    0.0000
   2488 O         139.2366  136.2620   58.9854 O.3     355      M_A    0.0000
   2489 H         140.2866  134.4960   60.5126 H       355      M_A    0.0000
   2490 H         141.7069  135.3333   59.9232 H       355      M_A    0.0000
   2491 H         139.4216  134.4577   58.0751 H       355      M_A    0.0000
   2492 H         140.7121  135.5759   57.6596 H       355      M_A    0.0000
   2493 C         138.3196  136.7006   58.0071 C.3     356      M_A    0.0000
   2494 C         138.3410  138.2178   57.8493 C.3     356      M_A    0.0000
   2495 O         137.7196  138.5997   56.6230 O.3     356      M_A    0.0000
   2496 H         138.5569  136.2264   57.0472 H       356      M_A    0.0000
   2497 H         137.3121  136.3595   58.2712 H       356      M_A    0.0000
   2498 H         139.3779  138.5730   57.7925 H       356      M_A    0.0000
   2499 H         137.8878  138.7285   58.7112 H       356      M_A    0.0000
   2500 C         138.3333  139.7355   56.0542 C.3     357      M_A    0.0000
   2501 C         137.6153  141.0236   56.4448 C.3     357      M_A    0.0000
   2502 O         138.4512  142.1536   56.1995 O.3     357      M_A    0.0000
   2503 H         139.3801  139.7840   56.3777 H       357      M_A    0.0000
   2504 H         138.3591  139.6296   54.9637 H       357      M_A    0.0000
   2505 H         137.4068  141.0232   57.5223 H       357      M_A    0.0000
   2506 H         136.6418  141.1214   55.9431 H       357      M_A    0.0000
   2507 C         137.6989  143.3303   55.9998 C.3     358      M_A    0.0000
   2508 C         137.8503  144.3046   57.1639 C.3     358      M_A    0.0000
   2509 O         137.4209  145.6099   56.7798 O.3     358      M_A    0.0000
   2510 H         138.0202  143.8142   55.0696 H       358      M_A    0.0000
   2511 H         136.6442  143.0699   55.8559 H       358      M_A    0.0000
   2512 H         138.9088  144.3971   57.4386 H       358      M_A    0.0000
   2513 H         137.3281  143.9538   58.0658 H       358      M_A    0.0000
   2514 C         136.5599  146.1835   57.7389 C.3     359      M_A    0.0000
   2515 C         137.1310  146.0769   59.1495 C.3     359      M_A    0.0000
   2516 O         136.5927  147.1020   59.9834 O.3     359      M_A    0.0000
   2517 H         136.3876  147.2374   57.4893 H       359      M_A    0.0000
   2518 H         135.5793  145.6968   57.6873 H       359      M_A    0.0000
   2519 H         138.2164  146.2373   59.1263 H       359      M_A    0.0000
   2520 H         136.9769  145.0778   59.5823 H       359      M_A    0.0000
   2521 C         135.2474  147.3848   59.6664 C.3     360      M_A    0.0000
   2522 C         134.3289  147.1930   60.8693 C.3     360      M_A    0.0000
   2523 O         133.6833  148.4207   61.2036 O.3     360      M_A    0.0000
   2524 H         135.1683  148.4164   59.3026 H       360      M_A    0.0000
   2525 H         134.9254  146.7464   58.8359 H       360      M_A    0.0000
   2526 H         134.9197  146.9065   61.7486 H       360      M_A    0.0000
   2527 H         133.6033  146.3825   60.7089 H       360      M_A    0.0000
   2528 C         133.2987  148.4598   62.5604 C.3     361      M_A    0.0000
   2529 C         132.7915  147.1053   63.0454 C.3     361      M_A    0.0000
   2530 O         132.6082  147.1198   64.4603 O.3     361      M_A    0.0000
   2531 H         134.1530  148.7744   63.1719 H       361      M_A    0.0000
   2532 H         132.5288  149.2270   62.7002 H       361      M_A    0.0000
   2533 H         133.5410  146.3303   62.8400 H       361      M_A    0.0000
   2534 H         131.8767  146.7953   62.5199 H       361      M_A    0.0000
   2535 C         131.8250  146.0318   64.8999 C.3     362      M_A    0.0000
   2536 C         131.5052  146.1281   66.3885 C.3     362      M_A    0.0000
   2537 O         130.1314  145.8227   66.6234 O.3     362      M_A    0.0000
   2538 H         130.8925  145.9984   64.3237 H       362      M_A    0.0000
   2539 H         132.3479  145.0935   64.6827 H       362      M_A    0.0000
   2540 H         131.6556  147.1577   66.7372 H       362      M_A    0.0000
   2541 H         132.1714  145.4976   66.9950 H       362      M_A    0.0000
   2542 C         129.2805  146.5096   65.7321 C.3     363      M_A    0.0000
   2543 C         128.2386  147.3432   66.4716 C.3     363      M_A    0.0000
   2544 O         127.0762  146.5612   66.7426 O.3     363      M_A    0.0000
   2545 H         129.8806  147.1595   65.0840 H       363      M_A    0.0000
   2546 H         128.7900  145.7899   65.0669 H       363      M_A    0.0000
   2547 H         127.9083  148.1762   65.8381 H       363      M_A    0.0000
   2548 H         128.6466  147.7959   67.3869 H       363      M_A    0.0000
   2549 C         126.0075  146.8932   65.8835 C.3     364      M_A    0.0000
   2550 C         124.6643  146.8462   66.6050 C.3     364      M_A    0.0000
   2551 O         123.6970  146.1593   65.8122 O.3     364      M_A    0.0000
   2552 H         126.1700  147.8963   65.4713 H       364      M_A    0.0000
   2553 H         126.0030  146.2114   65.0254 H       364      M_A    0.0000
   2554 H         124.2798  147.8645   66.7456 H       364      M_A    0.0000
   2555 H         124.7511  146.4087   67.6101 H       364      M_A    0.0000
   2556 C         122.4051  146.7035   65.9710 C.3     365      M_A    0.0000
   2557 C         121.4267  145.6837   66.5454 C.3     365      M_A    0.0000
   2558 O         120.3282  146.3452   67.1710 O.3     365      M_A    0.0000
   2559 H         122.4570  147.5775   66.6313 H       365      M_A    0.0000
   2560 H         122.0441  147.0757   65.0055 H       365      M_A    0.0000
   2561 H         121.9186  145.0947   67.3299 H       365      M_A    0.0000
   2562 H         121.0889  144.9634   65.7862 H       365      M_A    0.0000
   2563 C         119.3791  145.4292   67.6716 C.3     366      M_A    0.0000
   2564 C         118.0345  145.5617   66.9633 C.3     366      M_A    0.0000
   2565 O         117.2565  144.3799   67.1469 O.3     366      M_A    0.0000
   2566 H         119.7604  144.4080   67.5515 H       366      M_A    0.0000
   2567 H         119.2579  145.5812   68.7502 H       366      M_A    0.0000
   2568 H         118.1903  145.6627   65.8817 H       366      M_A    0.0000
   2569 H         117.4882  146.4617   67.2806 H       366      M_A    0.0000
   2570 C         115.8854  144.6725   67.3049 C.3     367      M_A    0.0000
   2571 C         115.0756  143.4266   67.6499 C.3     367      M_A    0.0000
   2572 O         113.8752  143.7862   68.3323 O.3     367      M_A    0.0000
   2573 H         115.7622  145.4232   68.0949 H       367      M_A    0.0000
   2574 H         115.5021  145.1340   66.3877 H       367      M_A    0.0000
   2575 H         115.6439  142.7911   68.3410 H       367      M_A    0.0000
   2576 H         114.8701  142.8097   66.7631 H       367      M_A    0.0000
   2577 C         114.1384  144.3361   69.6046 C.3     368      M_A    0.0000
   2578 C         115.5579  144.8864   69.7020 C.3     368      M_A    0.0000
   2579 O         115.5313  146.2912   69.9503 O.3     368      M_A    0.0000
   2580 H         113.4175  145.1362   69.8115 H       368      M_A    0.0000
   2581 H         113.9720  143.5735   70.3739 H       368      M_A    0.0000
   2582 H         116.0770  144.7528   68.7443 H       368      M_A    0.0000
   2583 H         116.1567  144.3518   70.4535 H       368      M_A    0.0000
   2584 C         115.8144  147.0361   68.7861 C.3     369      M_A    0.0000
   2585 C         114.8663  148.2204   68.6260 C.3     369      M_A    0.0000
   2586 O         115.5668  149.3533   68.1144 O.3     369      M_A    0.0000
   2587 H         116.8498  147.3952   68.8266 H       369      M_A    0.0000
   2588 H         115.7564  146.3807   67.9096 H       369      M_A    0.0000
   2589 H         114.4725  148.5188   69.6060 H       369      M_A    0.0000
   2590 H         113.9929  147.9687   68.0072 H       369      M_A    0.0000
   2591 C         116.7630  148.9823   67.4649 C.3     370      M_A    0.0000
   2592 C         117.6577  150.1875   67.1924 C.3     370      M_A    0.0000
   2593 O         119.0319  149.8047   67.2242 O.3     370      M_A    0.0000
   2594 H         117.3023  148.2547   68.0832 H       370      M_A    0.0000
   2595 H         116.5252  148.4651   66.5284 H       370      M_A    0.0000
   2596 H         117.5282  150.9357   67.9848 H       370      M_A    0.0000
   2597 H         117.3972  150.6897   66.2495 H       370      M_A    0.0000
   2598 C         119.7973  150.5146   66.2752 C.3     371      M_A    0.0000
   2599 C         121.2062  150.8030   66.7841 C.3     371      M_A    0.0000
   2600 O         122.0688  151.1385   65.6982 O.3     371      M_A    0.0000
   2601 H         119.8521  149.9358   65.3454 H       371      M_A    0.0000
   2602 H         119.2861  151.4496   66.0190 H       371      M_A    0.0000
   2603 H         121.6287  149.9013   67.2455 H       371      M_A    0.0000
   2604 H         121.2124  151.5789   67.5633 H       371      M_A    0.0000
   2605 C         122.3751  152.5155   65.6766 C.3     372      M_A    0.0000
   2606 C         123.8013  152.7719   65.1997 C.3     372      M_A    0.0000
   2607 O         123.8217  153.8185   64.2302 O.3     372      M_A    0.0000
   2608 H         121.6674  153.0355   65.0197 H       372      M_A    0.0000
   2609 H         122.2260  152.9389   66.6763 H       372      M_A    0.0000
   2610 H         124.1933  151.8787   64.6967 H       372      M_A    0.0000
   2611 H         124.4848  152.9787   66.0360 H       372      M_A    0.0000
   2612 C         125.1243  154.3199   64.0255 C.3     373      M_A    0.0000
   2613 C         125.6520  155.0480   65.2578 C.3     373      M_A    0.0000
   2614 O         127.0659  155.2180   65.1683 O.3     373      M_A    0.0000
   2615 H         125.7968  153.4923   63.7697 H       373      M_A    0.0000
   2616 H         125.1261  154.9894   63.1578 H       373      M_A    0.0000
   2617 H         125.4710  154.4430   66.1553 H       373      M_A    0.0000
   2618 H         125.1369  156.0054   65.4232 H       373      M_A    0.0000
   2619 C         127.5634  154.8273   63.9072 C.3     374      M_A    0.0000
   2620 C         128.6107  155.8048   63.3830 C.3     374      M_A    0.0000
   2621 O         129.8431  155.1293   63.1365 O.3     374      M_A    0.0000
   2622 H         128.0002  153.8243   63.9832 H       374      M_A    0.0000
   2623 H         126.7330  154.7419   63.1971 H       374      M_A    0.0000
   2624 H         128.8241  156.5670   64.1432 H       374      M_A    0.0000
   2625 H         128.2595  156.3476   62.4935 H       374      M_A    0.0000
   2626 C         130.6475  155.0647   64.2937 C.3     375      M_A    0.0000
   2627 C         132.1280  155.2306   63.9653 C.3     375      M_A    0.0000
   2628 O         132.8884  155.3925   65.1617 O.3     375      M_A    0.0000
   2629 H         130.3360  155.8458   64.9976 H       375      M_A    0.0000
   2630 H         130.4756  154.1111   64.8057 H       375      M_A    0.0000
   2631 H         132.2802  156.1451   63.3778 H       375      M_A    0.0000
   2632 H         132.5092  154.4028   63.3500 H       375      M_A    0.0000
   2633 C         133.1818  156.7483   65.4186 C.3     376      M_A    0.0000
   2634 C         134.6723  157.0421   65.2798 C.3     376      M_A    0.0000
   2635 O         134.8985  158.4495   65.2160 O.3     376      M_A    0.0000
   2636 H         132.6149  157.3810   64.7252 H       376      M_A    0.0000
   2637 H         132.8333  157.0138   66.4231 H       376      M_A    0.0000
   2638 H         135.0488  156.6268   64.3363 H       376      M_A    0.0000
   2639 H         135.2617  156.5713   66.0799 H       376      M_A    0.0000
   2640 C         136.0871  158.8213   65.8790 C.3     377      M_A    0.0000
   2641 C         136.9365  159.7653   65.0337 C.3     377      M_A    0.0000
   2642 O         138.2481  159.2320   64.8576 O.3     377      M_A    0.0000
   2643 H         135.8368  159.3034   66.8317 H       377      M_A    0.0000
   2644 H         136.6585  157.9223   66.1365 H       377      M_A    0.0000
   2645 H         137.0611  160.7233   65.5543 H       377      M_A    0.0000
   2646 H         136.4596  159.9984   64.0706 H       377      M_A    0.0000
   2647 C         139.1154  160.1612   64.2452 C.3     378      M_A    0.0000
   2648 C         139.1092  160.0267   62.7257 C.3     378      M_A    0.0000
   2649 O         140.4107  159.6860   62.2506 O.3     378      M_A    0.0000
   2650 H         138.8168  161.1781   64.5269 H       378      M_A    0.0000
   2651 H         140.1306  160.0258   64.6354 H       378      M_A    0.0000
   2652 H         138.8565  160.9909   62.2663 H       378      M_A    0.0000
   2653 H         138.3493  159.3119   62.3781 H       378      M_A    0.0000
   2654 C         140.6032  160.0872   60.9118 C.3     379      M_A    0.0000
   2655 C         140.7804  161.5977   60.7923 C.3     379      M_A    0.0000
   2656 O         140.6074  162.0137   59.4385 O.3     379      M_A    0.0000
   2657 H         141.4845  159.5788   60.5026 H       379      M_A    0.0000
   2658 H         139.7537  159.7542   60.3047 H       379      M_A    0.0000
   2659 H         141.8043  161.8770   61.0717 H       379      M_A    0.0000
   2660 H         140.1149  162.1462   61.4745 H       379      M_A    0.0000
   2661 C         141.3348  163.1881   59.1525 C.3     380      M_A    0.0000
   2662 C         141.2641  164.1923   60.2987 C.3     380      M_A    0.0000
   2663 O         142.3363  165.1293   60.2067 O.3     380      M_A    0.0000
   2664 H         142.3816  162.9285   58.9535 H       380      M_A    0.0000
   2665 H         140.9545  163.6378   58.2283 H       380      M_A    0.0000
   2666 H         141.3898  163.6740   61.2579 H       380      M_A    0.0000
   2667 H         140.2875  164.6953   60.3466 H       380      M_A    0.0000
   2668 C         143.4084  164.7863   61.0572 C.3     381      M_A    0.0000
   2669 C         144.6152  165.6944   60.8430 C.3     381      M_A    0.0000
   2670 O         144.9406  166.3831   62.0495 O.3     381      M_A    0.0000
   2671 H         143.0793  164.8501   62.1014 H       381      M_A    0.0000
   2672 H         143.6857  163.7390   60.8917 H       381      M_A    0.0000
   2673 H         144.3742  166.4678   60.1025 H       381      M_A    0.0000
   2674 H         145.4794  165.1444   60.4430 H       381      M_A    0.0000
   2675 C         146.2160  166.9828   61.9848 C.3     382      M_A    0.0000
   2676 C         146.3872  167.8162   60.7186 C.3     382      M_A    0.0000
   2677 O         147.5050  168.6937   60.8474 O.3     382      M_A    0.0000
   2678 H         146.3651  167.6171   62.8669 H       382      M_A    0.0000
   2679 H         146.9879  166.2067   62.0371 H       382      M_A    0.0000
   2680 H         145.5084  168.4569   60.5712 H       382      M_A    0.0000
   2681 H         146.4646  167.1885   59.8190 H       382      M_A    0.0000
   2682 C         147.9079  169.2179   59.6011 C.3     383      M_A    0.0000
   2683 C         149.2830  169.8738   59.6796 C.3     383      M_A    0.0000
   2684 O         149.8545  169.9895   58.3773 O.3     383      M_A    0.0000
   2685 H         147.9248  168.4134   58.8561 H       383      M_A    0.0000
   2686 H         147.1615  169.9392   59.2494 H       383      M_A    0.0000
   2687 H         149.9662  169.2411   60.2604 H       383      M_A    0.0000
   2688 H         149.2483  170.8439   60.1961 H       383      M_A    0.0000
   2689 C         150.9906  170.8260   58.3744 C.3     384      M_A    0.0000
   2690 C         151.7441  170.7544   57.0499 C.3     384      M_A    0.0000
   2691 O         152.5109  171.9408   56.8485 O.3     384      M_A    0.0000
   2692 H         150.6814  171.8602   58.5676 H       384      M_A    0.0000
   2693 H         151.6510  170.5484   59.2037 H       384      M_A    0.0000
   2694 H         151.0314  170.7035   56.2168 H       384      M_A    0.0000
   2695 H         152.3665  169.8508   56.9778 H       384      M_A    0.0000
   2696 C         153.7802  171.8559   57.4584 C.3     385      M_A    0.0000
   2697 C         154.5223  173.1879   57.4112 C.3     385      M_A    0.0000
   2698 O         155.7988  173.0692   58.0377 O.3     385      M_A    0.0000
   2699 H         153.6625  171.5359   58.5007 H       385      M_A    0.0000
   2700 H         154.3701  171.0737   56.9674 H       385      M_A    0.0000
   2701 H         153.9687  173.9446   57.9815 H       385      M_A    0.0000
   2702 H         154.6071  173.5765   56.3860 H       385      M_A    0.0000
   2703 C         156.8213  173.6554   57.2625 C.3     386      M_A    0.0000
   2704 C         156.5096  175.1085   56.9181 C.3     386      M_A    0.0000
   2705 O         157.6463  175.9341   57.1674 O.3     386      M_A    0.0000
   2706 H         157.7698  173.6013   57.8103 H       386      M_A    0.0000
   2707 H         156.9675  173.0702   56.3475 H       386      M_A    0.0000
   2708 H         155.7086  175.4830   57.5682 H       386      M_A    0.0000
   2709 H         156.1453  175.2188   55.8865 H       386      M_A    0.0000
   2710 C         158.4105  176.1427   56.0000 C.3     387      M_A    0.0000
   2711 C         159.7402  176.8245   56.3068 C.3     387      M_A    0.0000
   2712 O         160.5890  176.7993   55.1602 O.3     387      M_A    0.0000
   2713 H         158.5943  175.1798   55.5085 H       387      M_A    0.0000
   2714 H         157.8320  176.7403   55.2863 H       387      M_A    0.0000
   2715 H         160.2700  176.2730   57.0941 H       387      M_A    0.0000
   2716 H         159.6014  177.8467   56.6876 H       387      M_A    0.0000
   2717 C         161.8921  177.2486   55.4609 C.3     388      M_A    0.0000
   2718 C         161.8841  178.6510   56.0612 C.3     388      M_A    0.0000
   2719 O         163.2056  179.0420   56.4307 O.3     388      M_A    0.0000
   2720 H         162.3652  176.5500   56.1615 H       388      M_A    0.0000
   2721 H         162.5050  177.2266   54.5527 H       388      M_A    0.0000
   2722 H         161.2913  178.6587   56.9848 H       388      M_A    0.0000
   2723 H         161.4158  179.3846   55.3891 H       388      M_A    0.0000
   2724 C         163.9045  179.6192   55.3496 C.3     389      M_A    0.0000
   2725 C         165.2008  180.2839   55.8023 C.3     389      M_A    0.0000
   2726 O         166.1055  180.4090   54.7061 O.3     389      M_A    0.0000
   2727 H         164.1272  178.8451   54.6053 H       389      M_A    0.0000
   2728 H         163.2596  180.3470   54.8443 H       389      M_A    0.0000
   2729 H         165.7041  179.6533   56.5463 H       389      M_A    0.0000
   2730 H         165.0188  181.2516   56.2919 H       389      M_A    0.0000
   2731 C         167.4234  180.6658   55.1390 C.3     390      M_A    0.0000
   2732 C         168.0297  181.8710   54.4269 C.3     390      M_A    0.0000
   2733 O         169.1654  182.3533   55.1434 O.3     390      M_A    0.0000
   2734 H         167.4236  180.8386   56.2219 H       390      M_A    0.0000
   2735 H         168.0418  179.7759   54.9753 H       390      M_A    0.0000
   2736 H         167.3060  182.6957   54.4060 H       390      M_A    0.0000
   2737 H         168.2744  181.6499   53.3778 H       390      M_A    0.0000
   2738 C         169.9893  183.1663   54.3367 C.3     391      M_A    0.0000
   2739 C         171.1914  183.6994   55.1099 C.3     391      M_A    0.0000
   2740 O         172.2740  183.9719   54.2213 O.3     391      M_A    0.0000
   2741 H         170.3342  182.5889   53.4706 H       391      M_A    0.0000
   2742 H         169.3992  183.9958   53.9309 H       391      M_A    0.0000
   2743 H         171.5532  182.9364   55.8109 H       391      M_A    0.0000
   2744 H         170.9336  184.5784   55.7183 H       391      M_A    0.0000
   2745 C         172.1855  185.2660   53.6665 C.3     392      M_A    0.0000
   2746 C         173.5629  185.8538   53.3757 C.3     392      M_A    0.0000
   2747 O         173.4563  186.9428   52.4600 O.3     392      M_A    0.0000
   2748 H         171.5986  185.2259   52.7410 H       392      M_A    0.0000
   2749 H         171.6292  185.9189   54.3486 H       392      M_A    0.0000
   2750 H         174.1947  185.1013   52.8868 H       392      M_A    0.0000
   2751 H         174.0891  186.1462   54.2960 H       392      M_A    0.0000
   2752 C         174.7222  187.3968   52.0337 C.3     393      M_A    0.0000
   2753 C         175.6001  187.8151   53.2090 C.3     393      M_A    0.0000
   2754 O         176.9781  187.7731   52.8410 O.3     393      M_A    0.0000
   2755 H         175.2210  186.6028   51.4649 H       393      M_A    0.0000
   2756 H         174.5951  188.2330   51.3368 H       393      M_A    0.0000
   2757 H         175.4807  187.1040   54.0364 H       393      M_A    0.0000
   2758 H         175.3152  188.8001   53.6065 H       393      M_A    0.0000
   2759 C         177.3964  188.9751   52.2324 C.3     394      M_A    0.0000
   2760 C         178.9168  189.0965   52.2023 C.3     394      M_A    0.0000
   2761 O         179.3192  190.0785   51.2487 O.3     394      M_A    0.0000
   2762 H         177.0023  189.0217   51.2100 H       394      M_A    0.0000
   2763 H         176.9569  189.8265   52.7643 H       394      M_A    0.0000
   2764 H         179.3609  188.1482   51.8738 H       394      M_A    0.0000
   2765 H         179.3337  189.3024   53.1988 H       394      M_A    0.0000
   2766 C         180.7169  190.0832   51.0569 C.3     395      M_A    0.0000
   2767 C         181.3094  191.4774   51.2365 C.3     395      M_A    0.0000
   2768 O         182.7147  191.3951   51.4692 O.3     395      M_A    0.0000
   2769 H         181.1839  189.3896   51.7666 H       395      M_A    0.0000
   2770 H         180.9502  189.6960   50.0586 H       395      M_A    0.0000
   2771 H         180.8777  191.9552   52.1252 H       395      M_A    0.0000
   2772 H         181.0756  192.1372   50.3884 H       395      M_A    0.0000
   2773 C         183.3504  192.6422   51.2937 C.3     396      M_A    0.0000
   2774 C         184.8134  192.4816   50.8925 C.3     396      M_A    0.0000
   2775 O         185.2871  193.6655   50.2524 O.3     396      M_A    0.0000
   2776 H         182.8183  193.2171   50.5262 H       396      M_A    0.0000
   2777 H         183.2709  193.2263   52.2175 H       396      M_A    0.0000
   2778 H         184.9125  191.6733   50.1567 H       396      M_A    0.0000
   2779 H         185.4466  192.1997   51.7462 H       396      M_A    0.0000
   2780 C         186.6743  193.6085   50.0021 C.3     397      M_A    0.0000
   2781 C         187.2940  195.0003   49.9227 C.3     397      M_A    0.0000
   2782 O         188.7016  194.9321   50.1460 O.3     397      M_A    0.0000
   2783 H         187.1639  193.0314   50.7957 H       397      M_A    0.0000
   2784 H         186.8557  193.0573   49.0724 H       397      M_A    0.0000
   2785 H         186.8866  195.6367   50.7186 H       397      M_A    0.0000
   2786 H         187.0566  195.5039   48.9744 H       397      M_A    0.0000
   2787 C         189.1839  196.0774   50.8138 C.3     398      M_A    0.0000
   2788 C         190.3893  196.6836   50.1020 C.3     398      M_A    0.0000
   2789 O         190.6620  197.9893   50.6086 O.3     398      M_A    0.0000
   2790 H         188.3826  196.8230   50.8826 H       398      M_A    0.0000
   2791 H         189.4429  195.8166   51.8463 H       398      M_A    0.0000
   2792 H         190.1691  196.8076   49.0340 H       398      M_A    0.0000
   2793 H         191.2731  196.0320   50.1601 H       398      M_A    0.0000
   2794 C         191.9350  198.4512   50.2128 C.3     399      M_A    0.0000
   2795 C         192.5494  197.5654   49.1334 C.3     399      M_A    0.0000
   2796 O         193.3379  198.3470   48.2372 O.3     399      M_A    0.0000
   2797 H         191.8498  199.4797   49.8419 H       399      M_A    0.0000
   2798 H         192.5944  198.4992   51.0869 H       399      M_A    0.0000
   2799 H         191.7558  197.1096   48.5277 H       399      M_A    0.0000
   2800 H         193.1259  196.7328   49.5620 H       399      M_A    0.0000
   2801 C         194.1411  199.2825   48.9230 C.3     400      M_A    0.0000
   2802 C         195.4443  199.5627   48.1811 C.3     400      M_A    0.0000
   2803 O         195.9057  200.8824   48.4664 O.3     400      M_A    0.0000
   2804 H         193.5817  200.2169   49.0522 H       400      M_A    0.0000
   2805 H         194.3499  198.9136   49.9336 H       400      M_A    0.0000
   2806 H         195.2733  199.5240   47.0978 H       400      M_A    0.0000
   2807 H         196.2131  198.8072   48.3984 H       400      M_A    0.0000
   2808 C         197.2549  201.0593   48.0942 C.3     401      M_A    0.0000
   2809 C         197.5076  202.4506   47.5216 C.3     401      M_A    0.0000
   2810 O         198.8575  202.8482   47.7568 O.3     401      M_A    0.0000
   2811 H         197.8978  200.8976   48.9678 H       401      M_A    0.0000
   2812 H         197.5369  200.2908   47.3656 H       401      M_A    0.0000
   2813 H         196.8760  203.1865   48.0354 H       401      M_A    0.0000
   2814 H         197.2455  202.5116   46.4554 H       401      M_A    0.0000
   2815 C         199.7580  202.1863   46.8957 C.3     402      M_A    0.0000
   2816 C         201.0163  203.0123   46.6473 C.3     402      M_A    0.0000
   2817 O         202.0500  202.1933   46.1028 O.3     402      M_A    0.0000
   2818 H         200.0323  201.2178   47.3309 H       402      M_A    0.0000
   2819 H         199.2575  201.9601   45.9473 H       402      M_A    0.0000
   2820 H         201.4011  203.4022   47.5982 H       402      M_A    0.0000
   2821 H         200.8158  203.8887   46.0141 H       402      M_A    0.0000
   2822 C         203.1383  202.9610   45.6373 C.3     403      M_A    0.0000
   2823 C         202.9577  204.4446   45.9429 C.3     403      M_A    0.0000
   2824 O         204.2213  205.0597   46.1896 O.3     403      M_A    0.0000
   2825 H         204.0639  202.5988   46.1009 H       403      M_A    0.0000
   2826 H         203.2602  202.8063   44.5592 H       403      M_A    0.0000
   2827 H         202.3707  204.5681   46.8618 H       403      M_A    0.0000
   2828 H         202.4005  204.9641   45.1498 H       403      M_A    0.0000
   2829 C         204.5296  206.0352   45.2181 C.3     404      M_A    0.0000
   2830 C         205.8604  206.7228   45.5072 C.3     404      M_A    0.0000
   2831 O         206.5032  207.0955   44.2892 O.3     404      M_A    0.0000
   2832 H         204.5648  205.5647   44.2282 H       404      M_A    0.0000
   2833 H         203.7213  206.7739   45.1725 H       404      M_A    0.0000
   2834 H         206.5397  206.0246   46.0127 H       404      M_A    0.0000
   2835 H         205.7424  207.5814   46.1841 H       404      M_A    0.0000
   2836 C         207.8970  207.2393   44.4532 C.3     405      M_A    0.0000
   2837 C         208.2975  208.6981   44.6498 C.3     405      M_A    0.0000
   2838 O         209.6129  208.7841   45.1959 O.3     405      M_A    0.0000
   2839 H         208.2250  206.6471   45.3160 H       405      M_A    0.0000
   2840 H         208.4130  206.8166   43.5835 H       405      M_A    0.0000
   2841 H         207.6297  209.1739   45.3792 H       405      M_A    0.0000
   2842 H         208.2037  209.2802   43.7215 H       405      M_A    0.0000
   2843 C         210.5599  209.1760   44.2263 C.3     406      M_A    0.0000
   2844 C         211.4963  210.2588   44.7533 C.3     406      M_A    0.0000
   2845 O         212.7386  210.2272   44.0522 O.3     406      M_A    0.0000
   2846 H         211.1446  208.3022   43.9146 H       406      M_A    0.0000
   2847 H         210.0394  209.5269   43.3279 H       406      M_A    0.0000
   2848 H         211.7331  210.0673   45.8077 H       406      M_A    0.0000
   2849 H         211.0347  211.2562   44.7181 H       406      M_A    0.0000
   2850 C         213.2906  211.5169   43.9026 C.3     407      M_A    0.0000
   2851 C         214.8153  211.4895   43.9431 C.3     407      M_A    0.0000
   2852 O         215.3527  212.5935   43.2163 O.3     407      M_A    0.0000
   2853 H         212.9545  211.9487   42.9522 H       407      M_A    0.0000
   2854 H         212.9006  212.1747   44.6876 H       407      M_A    0.0000
   2855 H         215.1861  210.5840   43.4460 H       407      M_A    0.0000
   2856 H         215.1999  211.4545   44.9727 H       407      M_A    0.0000
   2857 C         214.9747  213.8293   43.7822 C.3     408      M_A    0.0000
   2858 C         216.1689  214.7625   43.9557 C.3     408      M_A    0.0000
   2859 O         216.2977  215.6220   42.8240 O.3     408      M_A    0.0000
   2860 H         214.2226  214.3073   43.1432 H       408      M_A    0.0000
   2861 H         214.4845  213.6549   44.7467 H       408      M_A    0.0000
   2862 H         217.0962  214.1776   44.0050 H       408      M_A    0.0000
   2863 H         216.1142  215.3320   44.8948 H       408      M_A    0.0000
   2864 C         217.5882  215.5556   42.2578 C.3     409      M_A    0.0000
   2865 C         218.6121  216.3228   43.0885 C.3     409      M_A    0.0000
   2866 O         219.9374  215.9516   42.7122 O.3     409      M_A    0.0000
   2867 H         217.8944  214.5061   42.1720 H       409      M_A    0.0000
   2868 H         217.5587  215.9460   41.2342 H       409      M_A    0.0000
   2869 H         218.5075  216.0579   44.1484 H       409      M_A    0.0000
   2870 H         218.4615  217.4104   43.0271 H       409      M_A    0.0000
   2871 C         220.6760  217.0540   42.2331 C.3     410      M_A    0.0000
   2872 C         222.1786  216.7958   42.2853 C.3     410      M_A    0.0000
   2873 O         222.8649  217.6660   41.3867 O.3     410      M_A    0.0000
   2874 H         220.3749  217.2732   41.2016 H       410      M_A    0.0000
   2875 H         220.4223  217.9457   42.8175 H       410      M_A    0.0000
   2876 H         222.3940  215.7737   41.9487 H       410      M_A    0.0000
   2877 H         222.5749  216.8727   43.3082 H       410      M_A    0.0000
   2878 C         224.2619  217.4755   41.4348 C.3     411      M_A    0.0000
   2879 C         225.0207  218.7701   41.1597 C.3     411      M_A    0.0000
   2880 O         226.3586  218.6761   41.6464 O.3     411      M_A    0.0000
   2881 H         224.5424  217.0859   42.4207 H       411      M_A    0.0000
   2882 H         224.5507  216.7040   40.7120 H       411      M_A    0.0000
   2883 H         224.5528  219.6003   41.7040 H       411      M_A    0.0000
   2884 H         224.9934  219.0459   40.0956 H       411      M_A    0.0000
   2885 C         227.2883  219.2225   40.7368 C.3     412      M_A    0.0000
   2886 C         227.6889  220.6437   41.1201 C.3     412      M_A    0.0000
   2887 O         229.0432  220.8965   40.7492 O.3     412      M_A    0.0000
   2888 H         228.1799  218.5849   40.7006 H       412      M_A    0.0000
   2889 H         226.8643  219.2058   39.7264 H       412      M_A    0.0000
   2890 H         227.6405  220.7645   42.2099 H       412      M_A    0.0000
   2891 H         227.0046  221.3932   40.6970 H       412      M_A    0.0000
   2892 C         229.1536  222.0095   39.8893 C.3     413      M_A    0.0000
   2893 C         230.5393  222.6438   39.9575 C.3     413      M_A    0.0000
   2894 O         230.8718  223.2494   38.7091 O.3     413      M_A    0.0000
   2895 H         228.9414  221.6965   38.8599 H       413      M_A    0.0000
   2896 H         228.3843  222.7469   40.1452 H       413      M_A    0.0000
   2897 H         231.2964  221.8694   40.1352 H       413      M_A    0.0000
   2898 H         230.6263  223.3558   40.7910 H       413      M_A    0.0000
   2899 C         232.1189  223.9069   38.7596 C.3     414      M_A    0.0000
   2900 C         232.6822  223.9467   40.1768 C.3     414      M_A    0.0000
   2901 O         234.0921  224.1635   40.1463 O.3     414      M_A    0.0000
   2902 H         232.8267  223.3963   38.0955 H       414      M_A    0.0000
   2903 H         232.0127  224.9232   38.3634 H       414      M_A    0.0000
   2904 H         232.5305  222.9764   40.6666 H       414      M_A    0.0000
   2905 H         232.1698  224.6910   40.8034 H       414      M_A    0.0000
   2906 C         234.4624  225.0723   39.1327 C.3     415      M_A    0.0000
   2907 C         235.8727  225.6140   39.3441 C.3     415      M_A    0.0000
   2908 O         236.4184  226.0773   38.1098 O.3     415      M_A    0.0000
   2909 H         234.4006  224.5747   38.1574 H       415      M_A    0.0000
   2910 H         233.7396  225.8954   39.0979 H       415      M_A    0.0000
   2911 H         236.5341  224.8094   39.6902 H       415      M_A    0.0000
   2912 H         235.9034  226.3925   40.1201 H       415      M_A    0.0000
   2913 C         237.7846  226.4078   38.2304 C.3     416      M_A    0.0000
   2914 C         238.0756  227.8138   37.7149 C.3     416      M_A    0.0000
   2915 O         239.2879  228.3104   38.2803 O.3     416      M_A    0.0000
   2916 H         238.0863  226.3306   39.2819 H       416      M_A    0.0000
   2917 H         238.3882  225.6710   37.6883 H       416      M_A    0.0000
   2918 H         237.2823  228.5010   38.0355 H       416      M_A    0.0000
   2919 H         238.0926  227.8548   36.6161 H       416      M_A    0.0000
   2920 C         239.4896  229.6733   37.9769 C.3     417      M_A    0.0000
   2921 C         240.9603  229.9851   37.7179 C.3     417      M_A    0.0000
   2922 O         241.0872  231.1668   36.9282 O.3     417      M_A    0.0000
   2923 H         238.8948  229.9419   37.0955 H       417      M_A    0.0000
   2924 H         239.1083  230.2910   38.7979 H       417      M_A    0.0000
   2925 H         241.4170  229.1750   37.1352 H       417      M_A    0.0000
   2926 H         241.5374  230.0558   38.6512 H       417      M_A    0.0000
   2927 C         242.3261  231.2186   36.2553 C.3     418      M_A    0.0000
   2928 C         243.4530  230.6253   37.0951 C.3     418      M_A    0.0000
   2929 O         244.7133  230.8436   36.4628 O.3     418      M_A    0.0000
   2930 H         242.2477  230.6749   35.3062 H       418      M_A    0.0000
   2931 H         242.5549  232.2570   35.9902 H       418      M_A    0.0000
   2932 H         243.3305  229.5372   37.1697 H       418      M_A    0.0000
   2933 H         243.4438  231.0072   38.1263 H       418      M_A    0.0000
   2934 C         244.8202  232.1501   35.9412 C.3     419      M_A    0.0000
   2935 C         246.1784  232.7736   36.2473 C.3     419      M_A    0.0000
   2936 O         246.6821  233.4575   35.1007 O.3     419      M_A    0.0000
   2937 H         244.6628  232.1228   34.8562 H       419      M_A    0.0000
   2938 H         244.0150  232.7729   36.3473 H       419      M_A    0.0000
   2939 H         246.9067  231.9866   36.4809 H       419      M_A    0.0000
   2940 H         246.1415  233.4300   37.1287 H       419      M_A    0.0000
   2941 C         248.0909  233.5325   35.1104 C.3     420      M_A    0.0000
   2942 C         248.5820  234.9290   35.4787 C.3     420      M_A    0.0000
   2943 O         249.9638  234.8937   35.8326 O.3     420      M_A    0.0000
   2944 H         248.4894  232.8012   35.8239 H       420      M_A    0.0000
   2945 H         248.4793  233.2388   34.1286 H       420      M_A    0.0000
   2946 H         248.0463  235.2917   36.3652 H       420      M_A    0.0000
   2947 H         248.3852  235.6592   34.6804 H       420      M_A    0.0000
   2948 C         250.4029  236.1263   36.3600 C.3     421      M_A    0.0000
   2949 C         251.7399  236.5545   35.7631 C.3     421      M_A    0.0000
   2950 O         251.8804  237.9731   35.8228 O.3     421      M_A    0.0000
   2951 H         249.6474  236.8963   36.1629 H       421      M_A    0.0000
   2952 H         250.4795  236.0508   37.4506 H       421      M_A    0.0000
   2953 H         251.7776  236.2859   34.6997 H       421      M_A    0.0000
   2954 H         252.5876  236.0415   36.2401 H       421      M_A    0.0000
   2955 C         253.2251  238.3611   36.0002 C.3     422      M_A    0.0000
   2956 C         254.0927  237.9604   34.8111 C.3     422      M_A    0.0000
   2957 O         255.0428  238.9844   34.5204 O.3     422      M_A    0.0000
   2958 H         253.2747  239.4472   36.1436 H       422      M_A    0.0000
   2959 H         253.6151  237.9167   36.9229 H       422      M_A    0.0000
   2960 H         253.4703  237.8542   33.9134 H       422      M_A    0.0000
   2961 H         254.5789  236.9862   34.9651 H       422      M_A    0.0000
   2962 C         256.2693  238.4511   34.0714 C.3     423      M_A    0.0000
   2963 C         257.2918  239.5458   33.7824 C.3     423      M_A    0.0000
   2964 O         258.6178  239.0334   33.9048 O.3     423      M_A    0.0000
   2965 H         256.6671  237.7653   34.8290 H       423      M_A    0.0000
   2966 H         256.0978  237.8441   33.1752 H       423      M_A    0.0000
   2967 H         257.2016  240.3472   34.5267 H       423      M_A    0.0000
   2968 H         257.1264  240.0162   32.8024 H       423      M_A    0.0000
   2969 C         259.5857  240.0572   33.8325 C.3     424      M_A    0.0000
   2970 C         259.4645  240.8622   32.5424 C.3     424      M_A    0.0000
   2971 O         260.0842  242.1388   32.6919 O.3     424      M_A    0.0000
   2972 H         259.4746  240.7247   34.6956 H       424      M_A    0.0000
   2973 H         260.5872  239.6201   33.9160 H       424      M_A    0.0000
   2974 H         258.4074  241.0572   32.3215 H       424      M_A    0.0000
   2975 H         259.8639  240.3152   31.6760 H       424      M_A    0.0000
   2976 C         260.3035  242.7655   31.4471 C.3     425      M_A    0.0000
   2977 C         261.6625  243.4562   31.3915 C.3     425      M_A    0.0000
   2978 O         261.6341  244.5370   30.4605 O.3     425      M_A    0.0000
   2979 H         260.2361  242.0188   30.6468 H       425      M_A    0.0000
   2980 H         259.5014  243.4871   31.2548 H       425      M_A    0.0000
   2981 H         262.4234  242.7549   31.0259 H       425      M_A    0.0000
   2982 H         261.9992  243.7845   32.3856 H       425      M_A    0.0000
   2983 C         262.8047  245.3214   30.5299 C.3     426      M_A    0.0000
   2984 C         263.8672  244.6775   31.4151 C.3     426      M_A    0.0000
   2985 O         265.1676  245.1313   31.0424 O.3     426      M_A    0.0000
   2986 H         263.2053  245.4675   29.5195 H       426      M_A    0.0000
   2987 H         262.5535  246.3210   30.9023 H       426      M_A    0.0000
   2988 H         263.8669  243.5899   31.2683 H       426      M_A    0.0000
   2989 H         263.6694  244.8436   32.4840 H       426      M_A    0.0000
   2990 C         265.7110  246.0133   32.0000 C.3     427      M_A    0.0000
   2991 C         267.1744  246.3330   31.7107 C.3     427      M_A    0.0000
   2992 O         267.4024  247.7391   31.7920 O.3     427      M_A    0.0000
   2993 H         265.1264  246.9411   32.0134 H       427      M_A    0.0000
   2994 H         265.6071  245.5766   32.9998 H       427      M_A    0.0000
   2995 H         267.4250  246.0394   30.6834 H       427      M_A    0.0000
   2996 H         267.8563  245.7718   32.3659 H       427      M_A    0.0000
   2997 C         268.7651  248.0394   32.0000 C.3     428      M_A    0.0000
   2998 C         269.5262  248.1619   30.6836 C.3     428      M_A    0.0000
   2999 O         270.5537  249.1459   30.7923 O.3     428      M_A    0.0000
   3000 H         268.8494  248.9764   32.5635 H       428      M_A    0.0000
   3001 H         269.2177  247.2660   32.6310 H       428      M_A    0.0000
   3002 H         268.8501  248.5090   29.8919 H       428      M_A    0.0000
   3003 H         269.9241  247.1940   30.3457 H       428      M_A    0.0000
   3004 C         271.7684  248.7019   30.2285 C.3     429      M_A    0.0000
   3005 C         272.7576  249.8475   30.0382 C.3     429      M_A    0.0000
   3006 O         274.0112  249.3506   29.5718 O.3     429      M_A    0.0000
   3007 H         272.2115  247.9355   30.8758 H       429      M_A    0.0000
   3008 H         271.5681  248.2087   29.2705 H       429      M_A    0.0000
   3009 H         272.9581  250.3321   31.0022 H       429      M_A    0.0000
   3010 H         272.3592  250.6308   29.3772 H       429      M_A    0.0000
   3011 C         274.7455  250.3396   28.8840 C.3     430      M_A    0.0000
   3012 C         274.6088  251.7086   29.5432 C.3     430      M_A    0.0000
   3013 O         275.7884  252.4830   29.3319 O.3     430      M_A    0.0000
   3014 H         275.8027  250.0503   28.8502 H       430      M_A    0.0000
   3015 H         274.4113  250.3841   27.8412 H       430      M_A    0.0000
   3016 H         274.5079  251.5917   30.6297 H       430      M_A    0.0000
   3017 H         273.7073  252.2404   29.2061 H       430      M_A    0.0000
   3018 C         275.7458  253.1818   28.1070 C.3     431      M_A    0.0000
   3019 C         274.9549  252.4212   27.0472 C.3     431      M_A    0.0000
   3020 O         274.7191  253.2511   25.9108 O.3     431      M_A    0.0000
   3021 H         275.2948  254.1686   28.2665 H       431      M_A    0.0000
   3022 H         276.7675  253.3698   27.7577 H       431      M_A    0.0000
   3023 H         273.9669  252.1505   27.4410 H       431      M_A    0.0000
   3024 H         275.4435  251.4768   26.7668 H       431      M_A    0.0000
   3025 C         274.5873  254.6091   26.2701 C.3     432      M_A    0.0000
   3026 C         273.8870  254.7745   27.6152 C.3     432      M_A    0.0000
   3027 O         272.7838  255.6714   27.4952 O.3     432      M_A    0.0000
   3028 H         275.5804  255.0726   26.3117 H       432      M_A    0.0000
   3029 H         274.0378  255.1428   25.4864 H       432      M_A    0.0000
   3030 H         274.5742  255.2274   28.3411 H       432      M_A    0.0000
   3031 H         273.5812  253.8085   28.0424 H       432      M_A    0.0000
   3032 C         271.9133  255.5847   28.6020 C.3     433      M_A    0.0000
   3033 C         271.1962  254.2393   28.6556 C.3     433      M_A    0.0000
   3034 O         270.7948  253.9419   29.9922 O.3     433      M_A    0.0000
   3035 H         272.4837  255.7359   29.5264 H       433      M_A    0.0000
   3036 H         271.1853  256.4028   28.5595 H       433      M_A    0.0000
   3037 H         271.8828  253.4377   28.3549 H       433      M_A    0.0000
   3038 H         270.3480  254.1960   27.9572 H       433      M_A    0.0000
   3039 C         269.6247  253.1545   30.0267 C.3     434      M_A    0.0000
   3040 C         269.5522  252.3015   31.2894 C.3     434      M_A    0.0000
   3041 O         268.2431  252.3584   31.8541 O.3     434      M_A    0.0000
   3042 H         268.7451  253.8070   29.9712 H       434      M_A    0.0000
   3043 H         269.5855  252.5187   29.1349 H       434      M_A    0.0000
   3044 H         270.2334  252.7023   32.0507 H       434      M_A    0.0000
   3045 H         269.8713  251.2654   31.1060 H       434      M_A    0.0000
   3046 C         267.3811  251.4004   31.2799 C.3     435      M_A    0.0000
   3047 C         266.1308  251.1828   32.1265 C.3     435      M_A    0.0000
   3048 O         264.9752  251.0943   31.2944 O.3     435      M_A    0.0000
   3049 H         267.0929  251.7270   30.2735 H       435      M_A    0.0000
   3050 H         267.9206  250.4557   31.1478 H       435      M_A    0.0000
   3051 H         265.9706  252.0459   32.7851 H       435      M_A    0.0000
   3052 H         266.2260  250.3072   32.7849 H       435      M_A    0.0000
   3053 C         265.2087  250.2977   30.1537 C.3     436      M_A    0.0000
   3054 C         264.8293  248.8396   30.3928 C.3     436      M_A    0.0000
   3055 O         263.6303  248.5155   29.6903 O.3     436      M_A    0.0000
   3056 H         264.6337  250.6947   29.3085 H       436      M_A    0.0000
   3057 H         266.2629  250.3742   29.8640 H       436      M_A    0.0000
   3058 H         264.6154  248.6788   31.4571 H       436      M_A    0.0000
   3059 H         265.6490  248.1528   30.1367 H       436      M_A    0.0000
   3060 C         262.8449  247.5793   30.3954 C.3     437      M_A    0.0000
   3061 C         262.4063  248.1159   31.7544 C.3     437      M_A    0.0000
   3062 O         260.9827  248.1743   31.8308 O.3     437      M_A    0.0000
   3063 H         261.9621  247.3217   29.7980 H       437      M_A    0.0000
   3064 H         263.4088  246.6476   30.5179 H       437      M_A    0.0000
   3065 H         262.7639  249.1456   31.8827 H       437      M_A    0.0000
   3066 H         262.8347  247.5359   32.5846 H       437      M_A    0.0000
   3067 C         260.5257  248.1283   33.1647 C.3     438      M_A    0.0000
   3068 C         260.7941  246.7722   33.8097 C.3     438      M_A    0.0000
   3069 O         259.5865  246.2229   34.3351 O.3     438      M_A    0.0000
   3070 H         261.0184  248.9172   33.7457 H       438      M_A    0.0000
   3071 H         259.4544  248.3577   33.1922 H       438      M_A    0.0000
   3072 H         261.4743  246.8921   34.6626 H       438      M_A    0.0000
   3073 H         261.2894  246.0768   33.1167 H       438      M_A    0.0000
   3074 C         258.4706  246.5452   33.5344 C.3     439      M_A    0.0000
   3075 C         257.5826  245.3303   33.2838 C.3     439      M_A    0.0000
   3076 O         256.2263  245.6288   33.6114 O.3     439      M_A    0.0000
   3077 H         257.8870  247.3340   34.0240 H       439      M_A    0.0000
   3078 H         258.8131  246.9691   32.5836 H       439      M_A    0.0000
   3079 H         257.8838  244.5052   33.9418 H       439      M_A    0.0000
   3080 H         257.6791  244.9541   32.2550 H       439      M_A    0.0000
   3081 C         255.5705  244.5233   34.1928 C.3     440      M_A    0.0000
   3082 C         254.3808  244.0647   33.3552 C.3     440      M_A    0.0000
   3083 O         253.9303  242.7827   33.7902 O.3     440      M_A    0.0000
   3084 H         256.2821  243.6966   34.3067 H       440      M_A    0.0000
   3085 H         255.2450  244.7830   35.2065 H       440      M_A    0.0000
   3086 H         254.6854  243.9449   32.3077 H       440      M_A    0.0000
   3087 H         253.5666  244.8038   33.3562 H       440      M_A    0.0000
   3088 C         252.9584  242.2444   32.9206 C.3     441      M_A    0.0000
   3089 C         252.0339  241.2664   33.6391 C.3     441      M_A    0.0000
   3090 O         250.7145  241.3419   33.1012 O.3     441      M_A    0.0000
   3091 H         252.3673  243.0595   32.4862 H       441      M_A    0.0000
   3092 H         253.4553  241.7497   32.0783 H       441      M_A    0.0000
   3093 H         251.9506  241.5406   34.6985 H       441      M_A    0.0000
   3094 H         252.4238  240.2385   33.6173 H       441      M_A    0.0000
   3095 C         249.7420  240.9240   34.0340 C.3     442      M_A    0.0000
   3096 C         248.7859  239.8972   33.4350 C.3     442      M_A    0.0000
   3097 O         247.9042  239.3937   34.4374 O.3     442      M_A    0.0000
   3098 H         250.2403  240.4959   34.9121 H       442      M_A    0.0000
   3099 H         249.1858  241.7955   34.3975 H       442      M_A    0.0000
   3100 H         249.3512  239.0342   33.0606 H       442      M_A    0.0000
   3101 H         248.2343  240.3007   32.5735 H       442      M_A    0.0000
   3102 C         246.6405  239.0600   33.9063 C.3     443      M_A    0.0000
   3103 C         246.2411  237.6282   34.2494 C.3     443      M_A    0.0000
   3104 O         244.8230  237.4801   34.1947 O.3     443      M_A    0.0000
   3105 H         245.8873  239.7562   34.2943 H       443      M_A    0.0000
   3106 H         246.6515  239.2023   32.8197 H       443      M_A    0.0000
   3107 H         246.5354  237.3951   35.2806 H       443      M_A    0.0000
   3108 H         246.7517  236.8933   33.6103 H       443      M_A    0.0000
   3109 C         244.3745  237.1944   32.8880 C.3     444      M_A    0.0000
   3110 C         243.4272  235.9989   32.8622 C.3     444      M_A    0.0000
   3111 O         242.8863  235.8203   31.5540 O.3     444      M_A    0.0000
   3112 H         243.8678  238.0756   32.4763 H       444      M_A    0.0000
   3113 H         245.2370  237.0109   32.2373 H       444      M_A    0.0000
   3114 H         242.5730  236.1846   33.5257 H       444      M_A    0.0000
   3115 H         243.9098  235.0824   33.2314 H       444      M_A    0.0000
   3116 C         242.3539  234.5257   31.3778 C.3     445      M_A    0.0000
   3117 C         241.7354  233.9869   32.6640 C.3     445      M_A    0.0000
   3118 O         240.6969  233.0553   32.3648 O.3     445      M_A    0.0000
   3119 H         241.5961  234.5487   30.5854 H       445      M_A    0.0000
   3120 H         243.1417  233.8517   31.0225 H       445      M_A    0.0000
   3121 H         241.2635  234.8049   33.2230 H       445      M_A    0.0000
   3122 H         242.4910  233.5522   33.3342 H       445      M_A    0.0000
   3123 C         241.1470  231.7210   32.4506 C.3     446      M_A    0.0000
   3124 C         240.0704  230.7938   33.0059 C.3     446      M_A    0.0000
   3125 O         240.0518  229.5635   32.2835 O.3     446      M_A    0.0000
   3126 H         241.4540  231.3758   31.4559 H       446      M_A    0.0000
   3127 H         242.0461  231.6780   33.0757 H       446      M_A    0.0000
   3128 H         239.0802  231.2464   32.8684 H       446      M_A    0.0000
   3129 H         240.1858  230.6289   34.0870 H       446      M_A    0.0000
   3130 C         238.9489  228.7602   32.6420 C.3     447      M_A    0.0000
   3131 C         237.6337  229.3438   32.1352 C.3     447      M_A    0.0000
   3132 O         236.5610  228.4330   32.3713 O.3     447      M_A    0.0000
   3133 H         239.0859  227.7511   32.2349 H       447      M_A    0.0000
   3134 H         238.9195  228.6446   33.7314 H       447      M_A    0.0000
   3135 H         237.6825  229.4867   31.0482 H       447      M_A    0.0000
   3136 H         237.4286  230.3342   32.5667 H       447      M_A    0.0000
   3137 C         235.3674  228.8540   31.7480 C.3     448      M_A    0.0000
   3138 C         234.1365  228.2372   32.4049 C.3     448      M_A    0.0000
   3139 O         233.4705  227.3643   31.4936 O.3     448      M_A    0.0000
   3140 H         235.3000  229.9477   31.7920 H       448      M_A    0.0000
   3141 H         235.4003  228.5963   30.6834 H       448      M_A    0.0000
   3142 H         233.4152  229.0241   32.6601 H       448      M_A    0.0000
   3143 H         234.3835  227.7288   33.3481 H       448      M_A    0.0000
   3144 C         234.0125  226.0621   31.5220 C.3     449      M_A    0.0000
   3145 C         233.7420  225.3641   32.8513 C.3     449      M_A    0.0000
   3146 O         232.6991  224.4014   32.7050 O.3     449      M_A    0.0000
   3147 H         233.5856  225.4722   30.7020 H       449      M_A    0.0000
   3148 H         235.0903  226.1104   31.3297 H       449      M_A    0.0000
   3149 H         233.3865  226.0931   33.5906 H       449      M_A    0.0000
   3150 H         234.6527  224.9160   33.2745 H       449      M_A    0.0000
   3151 C         232.9167  223.2643   33.5114 C.3     450      M_A    0.0000
   3152 C         233.2891  223.6455   34.9408 C.3     450      M_A    0.0000
   3153 O         232.8599  222.6360   35.8532 O.3     450      M_A    0.0000
   3154 H         232.0119  222.6447   33.5186 H       450      M_A    0.0000
   3155 H         233.7031  222.6449   33.0653 H       450      M_A    0.0000
   3156 H         232.7653  224.5653   35.2307 H       450      M_A    0.0000
   3157 H         234.3631  223.8575   35.0445 H       450      M_A    0.0000
   3158 C         231.4533  222.5438   35.9114 C.3     451      M_A    0.0000
   3159 C         230.7897  223.9121   35.7899 C.3     451      M_A    0.0000
   3160 O         229.5278  223.7970   35.1340 O.3     451      M_A    0.0000
   3161 H         231.0979  221.8887   35.1070 H       451      M_A    0.0000
   3162 H         231.1572  222.0589   36.8486 H       451      M_A    0.0000
   3163 H         231.4038  224.5708   35.1625 H       451      M_A    0.0000
   3164 H         230.6975  224.4136   36.7641 H       451      M_A    0.0000
   3165 C         228.5918  224.7300   35.6278 C.3     452      M_A    0.0000
   3166 C         227.5041  224.0566   36.4588 C.3     452      M_A    0.0000
   3167 O         226.2259  224.6086   36.1470 O.3     452      M_A    0.0000
   3168 H         229.1115  225.4789   36.2375 H       452      M_A    0.0000
   3169 H         228.1463  225.2789   34.7904 H       452      M_A    0.0000
   3170 H         227.6727  224.2537   37.5252 H       452      M_A    0.0000
   3171 H         227.5141  222.9631   36.3429 H       452      M_A    0.0000
   3172 C         225.1734  223.7964   36.6192 C.3     453      M_A    0.0000
   3173 C         225.5575  223.0557   37.8963 C.3     453      M_A    0.0000
   3174 O         224.7442  221.8953   38.0628 O.3     453      M_A    0.0000
   3175 H         224.2892  224.4180   36.8049 H       453      M_A    0.0000
   3176 H         224.8829  223.0841   35.8386 H       453      M_A    0.0000
   3177 H         225.3672  223.6929   38.7694 H       453      M_A    0.0000
   3178 H         226.6288  222.8088   37.9234 H       453      M_A    0.0000
   3179 C         224.2425  221.4240   36.8313 C.3     454      M_A    0.0000
   3180 C         223.2403  220.2901   37.0237 C.3     454      M_A    0.0000
   3181 O         221.9177  220.7400   36.7333 O.3     454      M_A    0.0000
   3182 H         223.7649  222.2511   36.2924 H       454      M_A    0.0000
   3183 H         225.0751  221.0933   36.2000 H       454      M_A    0.0000
   3184 H         223.2334  219.9718   38.0740 H       454      M_A    0.0000
   3185 H         223.5059  219.4006   36.4344 H       454      M_A    0.0000
   3186 C         221.0229  219.6633   36.5589 C.3     455      M_A    0.0000
   3187 C         221.1745  218.6161   37.6578 C.3     455      M_A    0.0000
   3188 O         219.9677  218.5065   38.4111 O.3     455      M_A    0.0000
   3189 H         219.9940  220.0430   36.5504 H       455      M_A    0.0000
   3190 H         221.1850  219.2089   35.5749 H       455      M_A    0.0000
   3191 H         221.9524  218.9280   38.3664 H       455      M_A    0.0000
   3192 H         221.4945  217.6428   37.2585 H       455      M_A    0.0000
   3193 C         218.8907  218.0607   37.6162 C.3     456      M_A    0.0000
   3194 C         217.7863  217.4308   38.4593 C.3     456      M_A    0.0000
   3195 O         216.6000  217.2666   37.6836 O.3     456      M_A    0.0000
   3196 H         218.4842  218.9055   37.0472 H       456      M_A    0.0000
   3197 H         219.2574  217.3443   36.8723 H       456      M_A    0.0000
   3198 H         217.5218  218.0993   39.2885 H       456      M_A    0.0000
   3199 H         218.1067  216.4840   38.9177 H       456      M_A    0.0000
   3200 C         215.5073  216.8548   38.4752 C.3     457      M_A    0.0000
   3201 C         215.4770  215.3404   38.6563 C.3     457      M_A    0.0000
   3202 O         214.5433  214.9790   39.6729 O.3     457      M_A    0.0000
   3203 H         215.5640  217.3425   39.4558 H       457      M_A    0.0000
   3204 H         214.5736  217.2025   38.0188 H       457      M_A    0.0000
   3205 H         216.4574  214.9852   38.9985 H       457      M_A    0.0000
   3206 H         215.2726  214.8162   37.7115 H       457      M_A    0.0000
   3207 C         213.3987  215.8035   39.6523 C.3     458      M_A    0.0000
   3208 C         212.1267  215.0157   39.9498 C.3     458      M_A    0.0000
   3209 O         211.3504  215.6808   40.9452 O.3     458      M_A    0.0000
   3210 H         213.5158  216.6072   40.3893 H       458      M_A    0.0000
   3211 H         213.3214  216.2974   38.6770 H       458      M_A    0.0000
   3212 H         212.3843  214.0334   40.3659 H       458      M_A    0.0000
   3213 H         211.5405  214.8203   39.0403 H       458      M_A    0.0000
   3214 C         210.2667  214.8899   41.3818 C.3     459      M_A    0.0000
   3215 C         210.3744  213.4534   40.8796 C.3     459      M_A    0.0000
   3216 O         209.4368  212.6177   41.5566 O.3     459      M_A    0.0000
   3217 H         210.2301  214.8958   42.4778 H       459      M_A    0.0000
   3218 H         209.3262  215.3412   41.0460 H       459      M_A    0.0000
   3219 H         211.3687  213.0504   41.1105 H       459      M_A    0.0000
   3220 H         210.2623  213.3889   39.7876 H       459      M_A    0.0000
   3221 C         209.2916  211.3673   40.9197 C.3     460      M_A    0.0000
   3222 C         207.8819  210.8078   41.0832 C.3     460      M_A    0.0000
   3223 O         207.5459  209.9732   39.9757 O.3     460      M_A    0.0000
   3224 H         209.5254  211.4727   39.8534 H       460      M_A    0.0000
   3225 H         210.0295  210.6641   41.3223 H       460      M_A    0.0000
   3226 H         207.1522  211.6275   41.0834 H       460      M_A    0.0000
   3227 H         207.7551  210.2829   42.0411 H       460      M_A    0.0000
   3228 C         206.8643  208.8074   40.3839 C.3     461      M_A    0.0000
   3229 C         205.6716  209.1314   41.2780 C.3     461      M_A    0.0000
   3230 O         204.4494  208.8284   40.6069 O.3     461      M_A    0.0000
   3231 H         206.5233  208.2565   39.4991 H       461      M_A    0.0000
   3232 H         207.5606  208.1404   40.9048 H       461      M_A    0.0000
   3233 H         205.6465  210.2075   41.4922 H       461      M_A    0.0000
   3234 H         205.7369  208.6254   42.2521 H       461      M_A    0.0000
   3235 C         203.3239  209.1394   41.3988 C.3     462      M_A    0.0000
   3236 C         202.1679  209.6713   40.5573 C.3     462      M_A    0.0000
   3237 O         200.9405  209.5715   41.2779 O.3     462      M_A    0.0000
   3238 H         203.0025  208.2429   41.9425 H       462      M_A    0.0000
   3239 H         203.6063  209.8714   42.1639 H       462      M_A    0.0000
   3240 H         202.0471  209.0558   39.6568 H       462      M_A    0.0000
   3241 H         202.3513  210.6971   40.2064 H       462      M_A    0.0000
   3242 C         200.0173  210.5626   40.8832 C.3     463      M_A    0.0000
   3243 C         198.6158  210.2754   41.4128 C.3     463      M_A    0.0000
   3244 O         197.8397  211.4724   41.4424 O.3     463      M_A    0.0000
   3245 H         200.3557  211.5405   41.2463 H       463      M_A    0.0000
   3246 H         200.0038  210.6349   39.7897 H       463      M_A    0.0000
   3247 H         198.6736  209.9203   42.4495 H       463      M_A    0.0000
   3248 H         198.1146  209.4798   40.8426 H       463      M_A    0.0000
   3249 C         196.4627  211.2024   41.5884 C.3     464      M_A    0.0000
   3250 C         196.2111  209.7689   42.0455 C.3     464      M_A    0.0000
   3251 O         194.9692  209.6791   42.7423 O.3     464      M_A    0.0000
   3252 H         196.0294  211.9021   42.3132 H       464      M_A    0.0000
   3253 H         195.9498  211.3950   40.6392 H       464      M_A    0.0000
   3254 H         196.9869  209.4624   42.7586 H       464      M_A    0.0000
   3255 H         196.2614  209.0550   41.2106 H       464      M_A    0.0000
   3256 C         193.9454  210.3940   42.0858 C.3     465      M_A    0.0000
   3257 C         192.6593  209.5796   41.9856 C.3     465      M_A    0.0000
   3258 O         191.6884  210.0662   42.9110 O.3     465      M_A    0.0000
   3259 H         193.7495  211.3280   42.6262 H       465      M_A    0.0000
   3260 H         194.2879  210.6892   41.0875 H       465      M_A    0.0000
   3261 H         192.8549  208.5364   42.2649 H       465      M_A    0.0000
   3262 H         192.2660  209.5546   40.9590 H       465      M_A    0.0000
   3263 C         191.0542  209.0163   43.6080 C.3     466      M_A    0.0000
   3264 C         190.2166  208.1433   42.6788 C.3     466      M_A    0.0000
   3265 O         189.8844  206.9116   43.3179 O.3     466      M_A    0.0000
   3266 H         191.8121  208.4014   44.1082 H       466      M_A    0.0000
   3267 H         190.4287  209.4326   44.4058 H       466      M_A    0.0000
   3268 H         190.7998  207.8799   41.7871 H       466      M_A    0.0000
   3269 H         189.3208  208.6679   42.3164 H       466      M_A    0.0000
   3270 C         188.8860  206.2065   42.6134 C.3     467      M_A    0.0000
   3271 C         188.0925  205.2800   43.5295 C.3     467      M_A    0.0000
   3272 O         186.7857  205.0575   43.0018 O.3     467      M_A    0.0000
   3273 H         188.2065  206.9207   42.1329 H       467      M_A    0.0000
   3274 H         189.3470  205.6347   41.8002 H       467      M_A    0.0000
   3275 H         187.9522  205.7537   44.5094 H       467      M_A    0.0000
   3276 H         188.6214  204.3344   43.7179 H       467      M_A    0.0000
   3277 C         185.8796  204.6417   44.0000 C.3     468      M_A    0.0000
   3278 C         185.5138  203.1677   43.8556 C.3     468      M_A    0.0000
   3279 O         184.8213  202.7106   45.0163 O.3     468      M_A    0.0000
   3280 H         186.3213  204.8171   44.9883 H       468      M_A    0.0000
   3281 H         184.9783  205.2637   43.9576 H       468      M_A    0.0000
   3282 H         186.4259  202.5618   43.7828 H       468      M_A    0.0000
   3283 H         184.9411  202.9731   42.9373 H       468      M_A    0.0000
   3284 C         183.8242  201.7655   44.6953 C.3     469      M_A    0.0000
   3285 C         183.4809  200.8764   45.8864 C.3     469      M_A    0.0000
   3286 O         182.1434  200.3915   45.7767 O.3     469      M_A    0.0000
   3287 H         182.9231  202.2889   44.3537 H       469      M_A    0.0000
   3288 H         184.1581  201.1552   43.8484 H       469      M_A    0.0000
   3289 H         183.5208  201.4621   46.8137 H       469      M_A    0.0000
   3290 H         184.2021  200.0556   46.0098 H       469      M_A    0.0000
   3291 C         181.8885  199.8360   44.5052 C.3     470      M_A    0.0000
   3292 C         180.6829  198.9014   44.5260 C.3     470      M_A    0.0000
   3293 O         180.3352  198.5078   43.1993 O.3     470      M_A    0.0000
   3294 H         181.7171  200.6433   43.7830 H       470      M_A    0.0000
   3295 H         182.7786  199.3014   44.1547 H       470      M_A    0.0000
   3296 H         179.8088  199.4280   44.9298 H       470      M_A    0.0000
   3297 H         180.8466  198.0317   45.1786 H       470      M_A    0.0000
   3298 C         179.4105  197.4422   43.1927 C.3     471      M_A    0.0000
   3299 C         180.1063  196.0870   43.2728 C.3     471      M_A    0.0000
   3300 O         179.1656  195.0623   43.5907 O.3     471      M_A    0.0000
   3301 H         178.7209  197.5535   44.0381 H       471      M_A    0.0000
   3302 H         178.7924  197.5002   42.2895 H       471      M_A    0.0000
   3303 H         180.8424  196.0923   44.0867 H       471      M_A    0.0000
   3304 H         180.6650  195.8554   42.3544 H       471      M_A    0.0000
   3305 C         179.8015  193.8372   43.8822 C.3     472      M_A    0.0000
   3306 C         179.2537  192.6969   43.0296 C.3     472      M_A    0.0000
   3307 O         180.0557  191.5274   43.1875 O.3     472      M_A    0.0000
   3308 H         180.8805  193.9381   43.7141 H       472      M_A    0.0000
   3309 H         179.6821  193.6077   44.9471 H       472      M_A    0.0000
   3310 H         179.3074  192.9657   41.9669 H       472      M_A    0.0000
   3311 H         178.1940  192.4951   43.2426 H       472      M_A    0.0000
   3312 C         179.2684  190.3698   43.3614 C.3     473      M_A    0.0000
   3313 C         178.1453  190.2879   42.3322 C.3     473      M_A    0.0000
   3314 O         177.6761  188.9456   42.2129 O.3     473      M_A    0.0000
   3315 H         179.9059  189.4809   43.2832 H       473      M_A    0.0000
   3316 H         178.8561  190.3571   44.3767 H       473      M_A    0.0000
   3317 H         178.5246  190.5704   41.3419 H       473      M_A    0.0000
   3318 H         177.3266  190.9862   42.5587 H       473      M_A    0.0000
   3319 C         176.6259  188.6740   43.1149 C.3     474      M_A    0.0000
   3320 C         176.0781  187.2612   42.9386 C.3     474      M_A    0.0000
   3321 O         175.1639  186.9470   43.9881 O.3     474      M_A    0.0000
   3322 H         176.9858  188.8046   44.1425 H       474      M_A    0.0000
   3323 H         175.8271  189.4118   42.9788 H       474      M_A    0.0000
   3324 H         176.8947  186.5317   43.0131 H       474      M_A    0.0000
   3325 H         175.6250  187.1153   41.9473 H       474      M_A    0.0000
   3326 C         174.1622  186.0498   43.5615 C.3     475      M_A    0.0000
   3327 C         172.7624  186.6075   43.7995 C.3     475      M_A    0.0000
   3328 O         171.8022  185.8898   43.0256 O.3     475      M_A    0.0000
   3329 H         174.2971  185.8342   42.4947 H       475      M_A    0.0000
   3330 H         174.2840  185.0923   44.0806 H       475      M_A    0.0000
   3331 H         172.7132  187.6503   43.4610 H       475      M_A    0.0000
   3332 H         172.4987  186.6179   44.8670 H       475      M_A    0.0000
   3333 C         171.8999  184.4969   43.2273 C.3     476      M_A    0.0000
   3334 C         170.6201  183.9191   43.8235 C.3     476      M_A    0.0000
   3335 O         170.9144  182.7676   44.6130 O.3     476      M_A    0.0000
   3336 H         172.1164  184.0051   42.2713 H       476      M_A    0.0000
   3337 H         172.7546  184.2808   43.8782 H       476      M_A    0.0000
   3338 H         169.9538  183.5795   43.0202 H       476      M_A    0.0000
   3339 H         170.0555  184.6702   44.3945 H       476      M_A    0.0000
   3340 C         169.8782  182.4771   45.5253 C.3     477      M_A    0.0000
   3341 C         169.3211  183.7414   46.1721 C.3     477      M_A    0.0000
   3342 O         168.0478  183.4801   46.7606 O.3     477      M_A    0.0000
   3343 H         169.0737  181.9438   45.0047 H       477      M_A    0.0000
   3344 H         170.2493  181.7885   46.2928 H       477      M_A    0.0000
   3345 H         169.1546  184.5104   45.4070 H       477      M_A    0.0000
   3346 H         170.0230  184.1768   46.8981 H       477      M_A    0.0000
   3347 C         167.7276  184.4225   47.7604 C.3     478      M_A    0.0000
   3348 C         166.2196  184.5782   47.9309 C.3     478      M_A    0.0000
   3349 O         165.8608  185.9591   47.9514 O.3     478      M_A    0.0000
   3350 H         168.1761  184.1109   48.7114 H       478      M_A    0.0000
   3351 H         168.1844  185.3875   47.5130 H       478      M_A    0.0000
   3352 H         165.9084  184.1650   48.8988 H       478      M_A    0.0000
   3353 H         165.6586  184.0236   47.1649 H       478      M_A    0.0000
   3354 C         164.5056  186.1448   48.2967 C.3     479      M_A    0.0000
   3355 C         163.5721  185.3871   47.3577 C.3     479      M_A    0.0000
   3356 O         162.3023  185.1830   47.9758 O.3     479      M_A    0.0000
   3357 H         164.3435  185.8091   49.3281 H       479      M_A    0.0000
   3358 H         164.2691  187.2149   48.2870 H       479      M_A    0.0000
   3359 H         163.9785  184.3886   47.1523 H       479      M_A    0.0000
   3360 H         163.4742  185.8859   46.3826 H       479      M_A    0.0000
   3361 C         161.3031  184.8661   47.0316 C.3     480      M_A    0.0000
   3362 C         161.8604  184.0531   45.8673 C.3     480      M_A    0.0000
   3363 O         161.1137  182.8491   45.6981 O.3     480      M_A    0.0000
   3364 H         160.5019  184.3027   47.5248 H       480      M_A    0.0000
   3365 H         160.8410  185.7895   46.6645 H       480      M_A    0.0000
   3366 H         162.8919  183.7476   46.0846 H       480      M_A    0.0000
   3367 H         161.9027  184.6394   44.9379 H       480      M_A    0.0000
   3368 C         160.0023  182.7938   46.5654 C.3     481      M_A    0.0000
   3369 C         159.5304  181.3609   46.7918 C.3     481      M_A    0.0000
   3370 O         158.9931  181.2153   48.1056 O.3     481      M_A    0.0000
   3371 H         160.2673  183.2511   47.5262 H       481      M_A    0.0000
   3372 H         159.1883  183.4025   46.1557 H       481      M_A    0.0000
   3373 H         160.3829  180.6725   46.7299 H       481      M_A    0.0000
   3374 H         158.8159  181.0355   46.0219 H       481      M_A    0.0000
   3375 C         158.0289  180.1873   48.1682 C.3     482      M_A    0.0000
   3376 C         158.4555  178.9602   47.3685 C.3     482      M_A    0.0000
   3377 O         158.3421  177.7823   48.1657 O.3     482      M_A    0.0000
   3378 H         157.8640  179.9063   49.2153 H       482      M_A    0.0000
   3379 H         157.0675  180.5651   47.8021 H       482      M_A    0.0000
   3380 H         159.5143  179.0439   47.0920 H       482      M_A    0.0000
   3381 H         157.8976  178.8683   46.4254 H       482      M_A    0.0000
   3382 C         158.1183  176.6338   47.3775 C.3     483      M_A    0.0000
   3383 C         159.1685  175.5572   47.6329 C.3     483      M_A    0.0000
   3384 O         158.5834  174.2591   47.5407 O.3     483      M_A    0.0000
   3385 H         157.1200  176.2338   47.5924 H       483      M_A    0.0000
   3386 H         158.1097  176.9136   46.3180 H       483      M_A    0.0000
   3387 H         159.5559  175.6482   48.6557 H       483      M_A    0.0000
   3388 H         160.0359  175.6606   46.9651 H       483      M_A    0.0000
   3389 C         157.6553  174.0261   48.5774 C.3     484      M_A    0.0000
   3390 C         156.8045  172.7885   48.3094 C.3     484      M_A    0.0000
   3391 O         156.5696  172.0738   49.5218 O.3     484      M_A    0.0000
   3392 H         158.1919  173.9066   49.5263 H       484      M_A    0.0000
   3393 H         157.0164  174.9079   48.7010 H       484      M_A    0.0000
   3394 H         157.3442  172.1006   47.6461 H       484      M_A    0.0000
   3395 H         155.8648  173.0375   47.7955 H       484      M_A    0.0000
   3396 C         155.4128  171.2701   49.4423 C.3     485      M_A    0.0000
   3397 C         155.4804  170.0827   50.3977 C.3     485      M_A    0.0000
   3398 O         154.7726  170.3720   51.6023 O.3     485      M_A    0.0000
   3399 H         154.5302  171.8790   49.6723 H       485      M_A    0.0000
   3400 H         155.2793  170.9224   48.4116 H       485      M_A    0.0000
   3401 H         156.5219  169.8969   50.6898 H       485      M_A    0.0000
   3402 H         155.1224  169.1550   49.9284 H       485      M_A    0.0000
   3403 C         155.5502  170.0989   52.7473 C.3     486      M_A    0.0000
   3404 C         154.9813  170.7711   53.9930 C.3     486      M_A    0.0000
   3405 O         155.6260  170.2748   55.1651 O.3     486      M_A    0.0000
   3406 H         155.5999  169.0145   52.9034 H       486      M_A    0.0000
   3407 H         156.5818  170.4265   52.5753 H       486      M_A    0.0000
   3408 H         153.9174  170.5232   54.0985 H       486      M_A    0.0000
   3409 H         155.0369  171.8676   53.9316 H       486      M_A    0.0000
   3410 C         154.7010  169.7457   56.0896 C.3     487      M_A    0.0000
   3411 C         155.3310  168.6716   56.9708 C.3     487      M_A    0.0000
   3412 O         156.0961  169.2705   58.0157 O.3     487      M_A    0.0000
   3413 H         154.3102  170.5556   56.7174 H       487      M_A    0.0000
   3414 H         153.8380  169.3383   55.5508 H       487      M_A    0.0000
   3415 H         156.0339  168.0694   56.3811 H       487      M_A    0.0000
   3416 H         154.5816  167.9706   57.3660 H       487      M_A    0.0000
   3417 C         155.4146  170.3521   58.6124 C.3     488      M_A    0.0000
   3418 C         153.9555  170.0133   58.9010 C.3     488      M_A    0.0000
   3419 O         153.6485  170.2613   60.2722 O.3     488      M_A    0.0000
   3420 H         155.9201  170.6309   59.5449 H       488      M_A    0.0000
   3421 H         155.4798  171.2301   57.9597 H       488      M_A    0.0000
   3422 H         153.7806  168.9427   58.7352 H       488      M_A    0.0000
   3423 H         153.2677  170.5451   58.2277 H       488      M_A    0.0000
   3424 C         154.8087  170.5209   61.0318 C.3     489      M_A    0.0000
   3425 C         155.5086  171.7987   60.5796 C.3     489      M_A    0.0000
   3426 O         155.0189  172.9207   61.3125 O.3     489      M_A    0.0000
   3427 H         154.5389  170.6032   62.0916 H       489      M_A    0.0000
   3428 H         155.4915  169.6667   60.9597 H       489      M_A    0.0000
   3429 H         155.2801  171.9966   59.5246 H       489      M_A    0.0000
   3430 H         156.6030  171.7153   60.6468 H       489      M_A    0.0000
   3431 C         156.0001  173.9245   61.4546 C.3     490      M_A    0.0000
   3432 C         155.6465  175.1794   60.6625 C.3     490      M_A    0.0000
   3433 O         155.9107  176.3481   61.4373 O.3     490      M_A    0.0000
   3434 H         156.1111  174.1772   62.5159 H       490      M_A    0.0000
   3435 H         156.9723  173.5332   61.1342 H       490      M_A    0.0000
   3436 H         154.5713  175.1922   60.4430 H       490      M_A    0.0000
   3437 H         156.1593  175.2115   59.6903 H       490      M_A    0.0000
   3438 C         155.3873  177.5097   60.8314 C.3     491      M_A    0.0000
   3439 C         154.6346  177.1879   59.5441 C.3     491      M_A    0.0000
   3440 O         153.6752  178.2054   59.2607 O.3     491      M_A    0.0000
   3441 H         154.7154  178.0159   61.5349 H       491      M_A    0.0000
   3442 H         156.2011  178.2155   60.6304 H       491      M_A    0.0000
   3443 H         154.0681  176.2559   59.6655 H       491      M_A    0.0000
   3444 H         155.3169  177.0251   58.6973 H       491      M_A    0.0000
   3445 C         152.5050  177.6763   58.6767 C.3     492      M_A    0.0000
   3446 C         152.8253  176.7064   57.5435 C.3     492      M_A    0.0000
   3447 O         151.6430  176.0309   57.1173 O.3     492      M_A    0.0000
   3448 H         151.9144  177.1635   59.4454 H       492      M_A    0.0000
   3449 H         151.8767  178.4960   58.3101 H       492      M_A    0.0000
   3450 H         153.5125  175.9287   57.9004 H       492      M_A    0.0000
   3451 H         153.3335  177.2048   56.7054 H       492      M_A    0.0000
   3452 C         151.1399  175.1710   58.1162 C.3     493      M_A    0.0000
   3453 C         149.6934  174.7702   57.8437 C.3     493      M_A    0.0000
   3454 O         149.1382  174.1071   58.9785 O.3     493      M_A    0.0000
   3455 H         151.7670  174.2732   58.1732 H       493      M_A    0.0000
   3456 H         151.2220  175.6591   59.0940 H       493      M_A    0.0000
   3457 H         149.6548  174.0497   57.0168 H       493      M_A    0.0000
   3458 H         149.0794  175.6279   57.5331 H       493      M_A    0.0000
   3459 C         147.7567  174.3601   59.1112 C.3     494      M_A    0.0000
   3460 C         146.9200  173.3864   58.2870 C.3     494      M_A    0.0000
   3461 O         145.5289  173.6232   58.4978 O.3     494      M_A    0.0000
   3462 H         147.4732  174.2872   60.1681 H       494      M_A    0.0000
   3463 H         147.5438  175.3927   58.8122 H       494      M_A    0.0000
   3464 H         147.1106  172.3574   58.6176 H       494      M_A    0.0000
   3465 H         147.1811  173.4198   57.2194 H       494      M_A    0.0000
   3466 C         144.7707  173.3701   57.3354 C.3     495      M_A    0.0000
   3467 C         143.4793  174.1821   57.3125 C.3     495      M_A    0.0000
   3468 O         142.9703  174.2706   55.9825 O.3     495      M_A    0.0000
   3469 H         145.3719  173.6083   56.4497 H       495      M_A    0.0000
   3470 H         144.5482  172.2990   57.2700 H       495      M_A    0.0000
   3471 H         143.6797  175.2119   57.6346 H       495      M_A    0.0000
   3472 H         142.7286  173.7824   58.0095 H       495      M_A    0.0000
   3473 C         142.3018  175.4921   55.7558 C.3     496      M_A    0.0000
   3474 C         141.3743  175.8540   56.9116 C.3     496      M_A    0.0000
   3475 O         140.3502  176.7432   56.4685 O.3     496      M_A    0.0000
   3476 H         143.0404  176.2899   55.6117 H       496      M_A    0.0000
   3477 H         141.7367  175.4312   54.8188 H       496      M_A    0.0000
   3478 H         141.9351  176.3922   57.6864 H       496      M_A    0.0000
   3479 H         140.9554  174.9618   57.3991 H       496      M_A    0.0000
   3480 C         139.5903  177.2477   57.5449 C.3     497      M_A    0.0000
   3481 C         138.1607  176.7158   57.5284 C.3     497      M_A    0.0000
   3482 O         137.6433  176.6371   58.8558 O.3     497      M_A    0.0000
   3483 H         140.0742  176.9761   58.4908 H       497      M_A    0.0000
   3484 H         139.5895  178.3431   57.5100 H       497      M_A    0.0000
   3485 H         138.1472  175.6927   57.1316 H       497      M_A    0.0000
   3486 H         137.5076  177.3089   56.8719 H       497      M_A    0.0000
   3487 C         136.3988  175.9738   58.8963 C.3     498      M_A    0.0000
   3488 C         135.7064  175.9836   57.5370 C.3     498      M_A    0.0000
   3489 O         134.6544  175.0201   57.5072 O.3     498      M_A    0.0000
   3490 H         136.5486  174.9389   59.2266 H       498      M_A    0.0000
   3491 H         135.7592  176.4425   59.6528 H       498      M_A    0.0000
   3492 H         136.4163  175.6885   56.7539 H       498      M_A    0.0000
   3493 H         135.3472  176.9865   57.2644 H       498      M_A    0.0000
   3494 C         134.1235  174.7817   58.7923 C.3     499      M_A    0.0000
   3495 C         132.8238  173.9853   58.7303 C.3     499      M_A    0.0000
   3496 O         132.4684  173.5103   60.0280 O.3     499      M_A    0.0000
   3497 H         134.8607  174.2384   59.3956 H       499      M_A    0.0000
   3498 H         133.9604  175.7372   59.3036 H       499      M_A    0.0000
   3499 H         132.9608  173.0949   58.1035 H       499      M_A    0.0000
   3500 H         132.0082  174.5622   58.2709 H       499      M_A    0.0000
   3501 C         131.0701  173.4825   60.2126 C.3     500      M_A    0.0000
   3502 C         130.3537  172.8465   59.0254 C.3     500      M_A    0.0000
   3503 O         129.6036  171.7086   59.4477 O.3     500      M_A    0.0000
   3504 H         130.8348  172.9250   61.1273 H       500      M_A    0.0000
   3505 H         130.7027  174.5018   60.3775 H       500      M_A    0.0000
   3506 H         131.0892  172.4780   58.2989 H       500      M_A    0.0000
   3507 H         129.7256  173.5706   58.4866 H       500      M_A    0.0000
   3508 C         128.3381  172.0721   59.9545 C.3     501      M_A    0.0000
   3509 C         127.5521  170.8585   60.4410 C.3     501      M_A    0.0000
   3510 O         127.8471  170.5908   61.8111 O.3     501      M_A    0.0000
   3511 H         128.4669  172.7831   60.7794 H       501      M_A    0.0000
   3512 H         127.7742  172.6059   59.1811 H       501      M_A    0.0000
   3513 H         127.8578  169.9660   59.8802 H       501      M_A    0.0000
   3514 H         126.4715  170.9724   60.2723 H       501      M_A    0.0000
   3515 C         128.8333  169.5917   61.9508 C.3     502      M_A    0.0000
   3516 C         128.2251  168.1927   61.9671 C.3     502      M_A    0.0000
   3517 O         129.1385  167.2463   61.4142 O.3     502      M_A    0.0000
   3518 H         129.5521  169.6720   61.1265 H       502      M_A    0.0000
   3519 H         129.4056  169.7688   62.8685 H       502      M_A    0.0000
   3520 H         127.3315  168.1663   61.3306 H       502      M_A    0.0000
   3521 H         127.8944  167.8986   62.9737 H       502      M_A    0.0000
   3522 C         130.0381  166.7556   62.3838 C.3     503      M_A    0.0000
   3523 C         129.3397  165.8642   63.4059 C.3     503      M_A    0.0000
   3524 O         128.8663  164.6703   62.7842 O.3     503      M_A    0.0000
   3525 H         130.8368  166.1917   61.8871 H       503      M_A    0.0000
   3526 H         130.5298  167.5970   62.8853 H       503      M_A    0.0000
   3527 H         128.4543  166.3755   63.8046 H       503      M_A    0.0000
   3528 H         129.9834  165.6449   64.2700 H       503      M_A    0.0000
   3529 C         128.1876  164.9400   61.5772 C.3     504      M_A    0.0000
   3530 C         127.1339  163.8804   61.2700 C.3     504      M_A    0.0000
   3531 O         126.0337  163.9964   62.1711 O.3     504      M_A    0.0000
   3532 H         127.7119  165.9261   61.6395 H       504      M_A    0.0000
   3533 H         128.9119  165.0056   60.7573 H       504      M_A    0.0000
   3534 H         127.5548  162.8788   61.4254 H       504      M_A    0.0000
   3535 H         126.8060  163.9169   60.2211 H       504      M_A    0.0000
   3536 C         126.4237  164.5518   63.4080 C.3     505      M_A    0.0000
   3537 C         127.1322  163.5291   64.2908 C.3     505      M_A    0.0000
   3538 O         127.4151  164.0887   65.5725 O.3     505      M_A    0.0000
   3539 H         127.0862  165.4074   63.2300 H       505      M_A    0.0000
   3540 H         125.5433  164.9537   63.9221 H       505      M_A    0.0000
   3541 H         128.1016  163.2631   63.8504 H       505      M_A    0.0000
   3542 H         126.5640  162.5913   64.3730 H       505      M_A    0.0000
   3543 C         127.9254  165.4002   65.4723 C.3     506      M_A    0.0000
   3544 C         128.4339  165.9150   66.8152 C.3     506      M_A    0.0000
   3545 O         129.5749  166.7511   66.6282 O.3     506      M_A    0.0000
   3546 H         128.7395  165.4188   64.7377 H       506      M_A    0.0000
   3547 H         127.1486  166.0656   65.0788 H       506      M_A    0.0000
   3548 H         128.7673  165.0737   67.4360 H       506      M_A    0.0000
   3549 H         127.6451  166.4254   67.3867 H       506      M_A    0.0000
   3550 C         129.2360  168.1199   66.6699 C.3     507      M_A    0.0000
   3551 C         128.8166  168.5580   68.0697 C.3     507      M_A    0.0000
   3552 O         128.9907  169.9657   68.2240 O.3     507      M_A    0.0000
   3553 H         130.0934  168.7175   66.3377 H       507      M_A    0.0000
   3554 H         128.4326  168.3197   65.9517 H       507      M_A    0.0000
   3555 H         129.4633  168.0839   68.8190 H       507      M_A    0.0000
   3556 H         127.7894  168.2466   68.3088 H       507      M_A    0.0000
   3557 C         127.8658  170.6871   67.7718 C.3     508      M_A    0.0000
   3558 C         127.5246  170.3556   66.3223 C.3     508      M_A    0.0000
   3559 O         126.6908  171.3692   65.7627 O.3     508      M_A    0.0000
   3560 H         127.0062  170.4610   68.4142 H       508      M_A    0.0000
   3561 H         128.0515  171.7614   67.8831 H       508      M_A    0.0000
   3562 H         126.9474  169.4232   66.2782 H       508      M_A    0.0000
   3563 H         128.4256  170.1886   65.7144 H       508      M_A    0.0000
   3564 C         125.6250  170.8213   65.0182 C.3     509      M_A    0.0000
   3565 C         125.6882  171.2325   63.5505 C.3     509      M_A    0.0000
   3566 O         124.6729  172.1914   63.2580 O.3     509      M_A    0.0000
   3567 H         125.6508  169.7277   65.0964 H       509      M_A    0.0000
   3568 H         124.6720  171.1331   65.4603 H       509      M_A    0.0000
   3569 H         125.4855  170.3646   62.9102 H       509      M_A    0.0000
   3570 H         126.6860  171.5974   63.2671 H       509      M_A    0.0000
   3571 C         123.4698  171.5760   62.8530 C.3     510      M_A    0.0000
   3572 C         123.5697  171.0105   61.4397 C.3     510      M_A    0.0000
   3573 O         122.2989  171.0594   60.7928 O.3     510      M_A    0.0000
   3574 H         123.2179  170.7721   63.5551 H       510      M_A    0.0000
   3575 H         122.6495  172.3000   62.9163 H       510      M_A    0.0000
   3576 H         123.8539  169.9512   61.4803 H       510      M_A    0.0000
   3577 H         124.3471  171.5150   60.8477 H       510      M_A    0.0000
   3578 C         121.6182  169.8266   60.8777 C.3     511      M_A    0.0000
   3579 C         122.2456  168.7689   59.9751 C.3     511      M_A    0.0000
   3580 O         122.0445  167.4659   60.5207 O.3     511      M_A    0.0000
   3581 H         121.6269  169.4770   61.9171 H       511      M_A    0.0000
   3582 H         120.5637  169.9726   60.6172 H       511      M_A    0.0000
   3583 H         123.3318  168.9173   59.9248 H       511      M_A    0.0000
   3584 H         121.8776  168.8382   58.9412 H       511      M_A    0.0000
   3585 C         121.7937  167.5101   61.9083 C.3     512      M_A    0.0000
   3586 C         122.0093  166.1513   62.5672 C.3     512      M_A    0.0000
   3587 O         120.8281  165.3570   62.4683 O.3     512      M_A    0.0000
   3588 H         122.4514  168.2542   62.3735 H       512      M_A    0.0000
   3589 H         120.7702  167.8603   62.0838 H       512      M_A    0.0000
   3590 H         122.2031  166.2824   63.6394 H       512      M_A    0.0000
   3591 H         122.8861  165.6289   62.1578 H       512      M_A    0.0000
   3592 C         121.1259  164.0016   62.2139 C.3     513      M_A    0.0000
   3593 C         120.1120  163.0662   62.8651 C.3     513      M_A    0.0000
   3594 O         119.4166  162.3157   61.8707 O.3     513      M_A    0.0000
   3595 H         121.1438  163.8300   61.1309 H       513      M_A    0.0000
   3596 H         122.1369  163.7761   62.5719 H       513      M_A    0.0000
   3597 H         119.3512  163.6517   63.3969 H       513      M_A    0.0000
   3598 H         120.5776  162.4123   63.6166 H       513      M_A    0.0000
   3599 C         120.3035  161.6724   60.9819 C.3     514      M_A    0.0000
   3600 C         121.7195  161.6023   61.5454 C.3     514      M_A    0.0000
   3601 O         122.6603  161.3638   60.4995 O.3     514      M_A    0.0000
   3602 H         119.9389  160.6594   60.7735 H       514      M_A    0.0000
   3603 H         120.3020  162.1975   60.0200 H       514      M_A    0.0000
   3604 H         121.8052  160.7537   62.2360 H       514      M_A    0.0000
   3605 H         121.9767  162.4994   62.1270 H       514      M_A    0.0000
   3606 C         123.9753  161.6927   60.8905 C.3     515      M_A    0.0000
   3607 C         124.4234  160.8882   62.1067 C.3     515      M_A    0.0000
   3608 O         124.7540  159.5533   61.7264 O.3     515      M_A    0.0000
   3609 H         124.6603  161.5092   60.0540 H       515      M_A    0.0000
   3610 H         124.0364  162.7665   61.1007 H       515      M_A    0.0000
   3611 H         123.5985  160.8079   62.8262 H       515      M_A    0.0000
   3612 H         125.2514  161.3757   62.6413 H       515      M_A    0.0000
   3613 C         123.6206  158.8348   61.2910 C.3     516      M_A    0.0000
   3614 C         123.1199  157.8651   62.3569 C.3     516      M_A    0.0000
   3615 O         121.9983  157.1283   61.8722 O.3     516      M_A    0.0000
   3616 H         122.8220  159.5391   61.0286 H       516      M_A    0.0000
   3617 H         123.8622  158.2950   60.3684 H       516      M_A    0.0000
   3618 H         122.7662  158.4231   63.2332 H       516      M_A    0.0000
   3619 H         123.9182  157.2003   62.7172 H       516      M_A    0.0000
   3620 C         121.0401  157.9678   61.2661 C.3     517      M_A    0.0000
   3621 C         119.7081  157.9371   62.0090 C.3     517      M_A    0.0000
   3622 O         118.9428  159.1030   61.7077 O.3     517      M_A    0.0000
   3623 H         121.4227  158.9952   61.2371 H       517      M_A    0.0000
   3624 H         120.9003  157.6683   60.2212 H       517      M_A    0.0000
   3625 H         119.8838  157.9557   63.0922 H       517      M_A    0.0000
   3626 H         119.1433  157.0159   61.8049 H       517      M_A    0.0000
   3627 C         119.6690  160.0185   60.9172 C.3     518      M_A    0.0000
   3628 C         119.2264  159.9834   59.4577 C.3     518      M_A    0.0000
   3629 O         120.3616  159.9702   58.5934 O.3     518      M_A    0.0000
   3630 H         119.5370  161.0305   61.3185 H       518      M_A    0.0000
   3631 H         120.7401  159.8000   60.9957 H       518      M_A    0.0000
   3632 H         118.6655  160.8950   59.2153 H       518      M_A    0.0000
   3633 H         118.5491  159.1418   59.2524 H       518      M_A    0.0000
   3634 C         121.0863  161.1788   58.6592 C.3     519      M_A    0.0000
   3635 C         120.3230  162.3335   58.0179 C.3     519      M_A    0.0000
   3636 O         120.7104  163.5742   58.6064 O.3     519      M_A    0.0000
   3637 H         121.3028  161.4167   59.7076 H       519      M_A    0.0000
   3638 H         122.0594  161.0486   58.1722 H       519      M_A    0.0000
   3639 H         119.2482  162.2237   58.2108 H       519      M_A    0.0000
   3640 H         120.4393  162.3480   56.9246 H       519      M_A    0.0000
   3641 C         119.8919  164.6391   58.1744 C.3     520      M_A    0.0000
   3642 C         118.4829  164.5413   58.7508 C.3     520      M_A    0.0000
   3643 O         118.3961  165.2629   59.9787 O.3     520      M_A    0.0000
   3644 H         120.3469  165.5916   58.4717 H       520      M_A    0.0000
   3645 H         119.8553  164.6510   57.0792 H       520      M_A    0.0000
   3646 H         118.2490  163.4962   58.9908 H       520      M_A    0.0000
   3647 H         117.7192  164.8699   58.0311 H       520      M_A    0.0000
   3648 C         119.0093  164.5670   61.0417 C.3     521      M_A    0.0000
   3649 C         119.6301  165.5189   62.0594 C.3     521      M_A    0.0000
   3650 O         118.8264  166.6893   62.2013 O.3     521      M_A    0.0000
   3651 H         118.2660  163.9308   61.5371 H       521      M_A    0.0000
   3652 H         119.7706  163.8871   60.6426 H       521      M_A    0.0000
   3653 H         120.6103  165.8601   61.7026 H       521      M_A    0.0000
   3654 H         119.8087  165.0285   63.0273 H       521      M_A    0.0000
   3655 C         117.5337  166.5071   61.6664 C.3     522      M_A    0.0000
   3656 C         116.7561  165.4301   62.4166 C.3     522      M_A    0.0000
   3657 O         115.3659  165.5123   62.1061 O.3     522      M_A    0.0000
   3658 H         116.9851  167.4557   61.7094 H       522      M_A    0.0000
   3659 H         117.6105  166.2508   60.6037 H       522      M_A    0.0000
   3660 H         116.8400  165.5939   63.4985 H       522      M_A    0.0000
   3661 H         117.1567  164.4240   62.2258 H       522      M_A    0.0000
   3662 C         114.5989  164.6253   62.8906 C.3     523      M_A    0.0000
   3663 C         115.0939  163.1875   62.7688 C.3     523      M_A    0.0000
   3664 O         114.4442  162.5275   61.6834 O.3     523      M_A    0.0000
   3665 H         114.6376  164.9412   63.9400 H       523      M_A    0.0000
   3666 H         113.5460  164.6920   62.5939 H       523      M_A    0.0000
   3667 H         114.8313  162.6240   63.6732 H       523      M_A    0.0000
   3668 H         116.1887  163.1343   62.6804 H       523      M_A    0.0000
   3669 C         114.2799  163.3807   60.5720 C.3     524      M_A    0.0000
   3670 C         114.8155  162.7514   59.2897 C.3     524      M_A    0.0000
   3671 O         113.8766  162.9103   58.2272 O.3     524      M_A    0.0000
   3672 H         113.2164  163.6187   60.4499 H       524      M_A    0.0000
   3673 H         114.7823  164.3351   60.7664 H       524      M_A    0.0000
   3674 H         114.9427  161.6702   59.4289 H       524      M_A    0.0000
   3675 H         115.8060  163.1452   59.0195 H       524      M_A    0.0000
   3676 C         114.4348  163.6022   57.1317 C.3     525      M_A    0.0000
   3677 C         115.6304  162.8604   56.5420 C.3     525      M_A    0.0000
   3678 O         115.6670  163.0220   55.1248 O.3     525      M_A    0.0000
   3679 H         113.6685  163.7398   56.3594 H       525      M_A    0.0000
   3680 H         114.7295  164.6095   57.4473 H       525      M_A    0.0000
   3681 H         115.5298  161.7833   56.7265 H       525      M_A    0.0000
   3682 H         116.5771  163.1657   57.0108 H       525      M_A    0.0000
   3683 C         116.9196  162.6591   54.5867 C.3     526      M_A    0.0000
   3684 C         117.4291  161.3456   55.1719 C.3     526      M_A    0.0000
   3685 O         117.9818  160.5240   54.1445 O.3     526      M_A    0.0000
   3686 H         116.8353  162.5694   53.4970 H       526      M_A    0.0000
   3687 H         117.6422  163.4627   54.7684 H       526      M_A    0.0000
   3688 H         116.5936  160.7794   55.6027 H       526      M_A    0.0000
   3689 H         118.1445  161.5091   55.9908 H       526      M_A    0.0000
   3690 C         119.0984  159.7923   54.6005 C.3     527      M_A    0.0000
   3691 C         118.8192  159.1026   55.9323 C.3     527      M_A    0.0000
   3692 O         119.2102  157.7316   55.8746 O.3     527      M_A    0.0000
   3693 H         119.3750  159.0438   53.8483 H       527      M_A    0.0000
   3694 H         119.9615  160.4614   54.6919 H       527      M_A    0.0000
   3695 H         117.7409  159.1068   56.1364 H       527      M_A    0.0000
   3696 H         119.2938  159.6258   56.7751 H       527      M_A    0.0000
   3697 C         119.2975  157.1555   57.1595 C.3     528      M_A    0.0000
   3698 C         120.6848  157.3344   57.7682 C.3     528      M_A    0.0000
   3699 O         120.8954  156.3874   58.8144 O.3     528      M_A    0.0000
   3700 H         118.5455  157.6115   57.8147 H       528      M_A    0.0000
   3701 H         119.0415  156.0915   57.1012 H       528      M_A    0.0000
   3702 H         120.7650  158.3266   58.2304 H       528      M_A    0.0000
   3703 H         121.4781  157.2841   57.0084 H       528      M_A    0.0000
   3704 C         121.7504  155.3402   58.4111 C.3     529      M_A    0.0000
   3705 C         123.0237  155.2927   59.2499 C.3     529      M_A    0.0000
   3706 O         124.0197  156.1487   58.6921 O.3     529      M_A    0.0000
   3707 H         121.2189  154.3844   58.4929 H       529      M_A    0.0000
   3708 H         121.9976  155.4582   57.3500 H       529      M_A    0.0000
   3709 H         123.4446  154.2792   59.2333 H       529      M_A    0.0000
   3710 H         122.8305  155.5281   60.3065 H       529      M_A    0.0000
   3711 C         123.8186  157.4965   59.0573 C.3     530      M_A    0.0000
   3712 C         124.9128  158.4036   58.5032 C.3     530      M_A    0.0000
   3713 O         124.4818  159.0205   57.2910 O.3     530      M_A    0.0000
   3714 H         122.8409  157.8311   58.6901 H       530      M_A    0.0000
   3715 H         123.7743  157.5766   60.1494 H       530      M_A    0.0000
   3716 H         125.7982  157.8077   58.2475 H       530      M_A    0.0000
   3717 H         125.2454  159.1471   59.2420 H       530      M_A    0.0000
   3718 C         124.1262  160.3717   57.4864 C.3     531      M_A    0.0000
   3719 C         125.3328  161.2276   57.8585 C.3     531      M_A    0.0000
   3720 O         125.1973  162.5412   57.3180 O.3     531      M_A    0.0000
   3721 H         123.6646  160.7625   56.5716 H       531      M_A    0.0000
   3722 H         123.3574  160.4385   58.2646 H       531      M_A    0.0000
   3723 H         126.2426  160.8043   57.4141 H       531      M_A    0.0000
   3724 H         125.5031  161.2504   58.9447 H       531      M_A    0.0000
   3725 C         124.1799  163.2734   57.9654 C.3     532      M_A    0.0000
   3726 C         124.7501  164.3913   58.8329 C.3     532      M_A    0.0000
   3727 O         124.9296  165.5780   58.0613 O.3     532      M_A    0.0000
   3728 H         123.5030  163.6980   57.2144 H       532      M_A    0.0000
   3729 H         123.5700  162.5942   58.5718 H       532      M_A    0.0000
   3730 H         125.7453  164.1091   59.1996 H       532      M_A    0.0000
   3731 H         124.1345  164.5756   59.7252 H       532      M_A    0.0000
   3732 C         125.4161  166.6456   58.8448 C.3     533      M_A    0.0000
   3733 C         124.3354  167.2185   59.7564 C.3     533      M_A    0.0000
   3734 O         124.2251  166.4408   60.9476 O.3     533      M_A    0.0000
   3735 H         126.2622  166.2974   59.4493 H       533      M_A    0.0000
   3736 H         125.8152  167.4279   58.1892 H       533      M_A    0.0000
   3737 H         123.3584  167.1610   59.2598 H       533      M_A    0.0000
   3738 H         124.5049  168.2819   59.9793 H       533      M_A    0.0000
   3739 C         125.0065  165.2679   60.8836 C.3     534      M_A    0.0000
   3740 C         124.1598  164.0118   61.0638 C.3     534      M_A    0.0000
   3741 O         124.9939  162.8790   61.3023 O.3     534      M_A    0.0000
   3742 H         125.5248  165.2281   59.9180 H       534      M_A    0.0000
   3743 H         125.7923  165.3101   61.6464 H       534      M_A    0.0000
   3744 H         123.6072  163.7980   60.1400 H       534      M_A    0.0000
   3745 H         123.4039  164.1337   61.8531 H       534      M_A    0.0000
   3746 C         124.5613  162.1337   62.4193 C.3     535      M_A    0.0000
   3747 C         125.5634  162.1993   63.5676 C.3     535      M_A    0.0000
   3748 O         125.0720  163.0406   64.6100 O.3     535      M_A    0.0000
   3749 H         123.5891  162.5136   62.7559 H       535      M_A    0.0000
   3750 H         124.3916  161.0929   62.1209 H       535      M_A    0.0000
   3751 H         126.5000  162.6542   63.2207 H       535      M_A    0.0000
   3752 H         125.8273  161.1997   63.9422 H       535      M_A    0.0000
   3753 C         123.6678  163.1689   64.5638 C.3     536      M_A    0.0000
   3754 C         123.0061  161.9409   63.9463 C.3     536      M_A    0.0000
   3755 O         122.8181  162.1285   62.5444 O.3     536      M_A    0.0000
   3756 H         123.2829  163.3241   65.5789 H       536      M_A    0.0000
   3757 H         123.4013  164.0695   63.9990 H       536      M_A    0.0000
   3758 H         122.0056  161.8002   64.3749 H       536      M_A    0.0000
   3759 H         123.5653  161.0189   64.1618 H       536      M_A    0.0000
   3760 C         124.0000  161.8747   61.8171 C.3     537      M_A    0.0000
   3761 C         124.0540  162.6812   60.5233 C.3     537      M_A    0.0000
   3762 O         123.0023  162.2839   59.6446 O.3     537      M_A    0.0000
   3763 H         124.8696  162.1173   62.4396 H       537      M_A    0.0000
   3764 H         124.0732  160.8028   61.6009 H       537      M_A    0.0000
   3765 H         124.9925  162.4746   59.9931 H       537      M_A    0.0000
   3766 H         124.0392  163.7644   60.7116 H       537      M_A    0.0000
   3767 C         121.9641  163.2382   59.6024 C.3     538      M_A    0.0000
   3768 C         121.6155  163.7590   60.9933 C.3     538      M_A    0.0000
   3769 O         122.7998  164.1297   61.6974 O.3     538      M_A    0.0000
   3770 H         122.2645  164.0746   58.9599 H       538      M_A    0.0000
   3771 H         121.0802  162.7961   59.1287 H       538      M_A    0.0000
   3772 H         121.1434  162.9628   61.5829 H       538      M_A    0.0000
   3773 H         120.8901  164.5845   60.9546 H       538      M_A    0.0000
   3774 C         123.4364  163.0133   62.2794 C.3     539      M_A    0.0000
   3775 C         123.5968  163.1745   63.7879 C.3     539      M_A    0.0000
   3776 O         122.6095  164.0678   64.3010 O.3     539      M_A    0.0000
   3777 H         122.8538  162.1093   62.0649 H       539      M_A    0.0000
   3778 H         124.4134  162.8619   61.8066 H       539      M_A    0.0000
   3779 H         124.5700  163.6288   64.0138 H       539      M_A    0.0000
   3780 H         123.5804  162.2069   64.3101 H       539      M_A    0.0000
   3781 C         123.1506  164.9599   65.2506 C.3     540      M_A    0.0000
   3782 C         122.1556  166.0501   65.6359 C.3     540      M_A    0.0000
   3783 O         120.8290  165.6606   65.2838 O.3     540      M_A    0.0000
   3784 H         123.4505  164.4011   66.1453 H       540      M_A    0.0000
   3785 H         124.0687  165.4059   64.8515 H       540      M_A    0.0000
   3786 H         122.3677  166.9664   65.0703 H       540      M_A    0.0000
   3787 H         122.2314  166.3205   66.6991 H       540      M_A    0.0000
   3788 C         120.3592  164.6044   66.0926 C.3     541      M_A    0.0000
   3789 C         119.0704  164.0000   65.5441 C.3     541      M_A    0.0000
   3790 O         118.8720  162.6887   66.0704 O.3     541      M_A    0.0000
   3791 H         121.1306  163.8280   66.1617 H       541      M_A    0.0000
   3792 H         120.2044  164.9679   67.1149 H       541      M_A    0.0000
   3793 H         119.1448  163.8866   64.4551 H       541      M_A    0.0000
   3794 H         118.2007  164.6475   65.7272 H       541      M_A    0.0000
   3795 C         120.0938  162.0623   66.3948 C.3     542      M_A    0.0000
   3796 C         121.2766  163.0138   66.2439 C.3     542      M_A    0.0000
   3797 O         121.0703  164.1919   67.0219 O.3     542      M_A    0.0000
   3798 H         120.0493  161.6895   67.4252 H       542      M_A    0.0000
   3799 H         120.2319  161.1795   65.7602 H       542      M_A    0.0000
   3800 H         121.3595  163.3444   65.2007 H       542      M_A    0.0000
   3801 H         122.2316  162.5267   66.4890 H       542      M_A    0.0000
   3802 C         121.9171  164.2320   68.1496 C.3     543      M_A    0.0000
   3803 C         123.3141  163.7101   67.8287 C.3     543      M_A    0.0000
   3804 O         123.5734  163.8093   66.4291 O.3     543      M_A    0.0000
   3805 H         121.9840  165.2628   68.5180 H       543      M_A    0.0000
   3806 H         121.4704  163.6492   68.9631 H       543      M_A    0.0000
   3807 H         123.3814  162.6437   68.0793 H       543      M_A    0.0000
   3808 H         124.0896  164.2151   68.4227 H       543      M_A    0.0000
   3809 C         124.4930  164.8384   66.1366 C.3     544      M_A    0.0000
   3810 C         124.9756  164.7738   64.6909 C.3     544      M_A    0.0000
   3811 O         125.0290  163.4199   64.2438 O.3     544      M_A    0.0000
   3812 H         124.0230  165.8110   66.3256 H       544      M_A    0.0000
   3813 H         125.3434  164.7753   66.8250 H       544      M_A    0.0000
   3814 H         125.9998  165.1616   64.6211 H       544      M_A    0.0000
   3815 H         124.3641  165.3985   64.0238 H       544      M_A    0.0000
   3816 C         124.0828  162.6099   64.9063 C.3     545      M_A    0.0000
   3817 C         122.6540  162.9630   64.5050 C.3     545      M_A    0.0000
   3818 O         121.7200  162.3149   65.3673 O.3     545      M_A    0.0000
   3819 H         124.2810  161.5561   64.6760 H       545      M_A    0.0000
   3820 H         124.2100  162.7111   65.9901 H       545      M_A    0.0000
   3821 H         122.4475  162.5918   63.4931 H       545      M_A    0.0000
   3822 H         122.4914  164.0501   64.4730 H       545      M_A    0.0000
   3823 C         121.6397  162.9478   66.6256 C.3     546      M_A    0.0000
   3824 C         120.6551  162.2428   67.5533 C.3     546      M_A    0.0000
   3825 O         121.0179  162.4532   68.9171 O.3     546      M_A    0.0000
   3826 H         122.6340  162.9660   67.0880 H       546      M_A    0.0000
   3827 H         121.3509  163.9962   66.4897 H       546      M_A    0.0000
   3828 H         120.6963  161.1587   67.3876 H       546      M_A    0.0000
   3829 H         119.6159  162.5444   67.3577 H       546      M_A    0.0000
   3830 C         120.1487  163.3609   69.5581 C.3     547      M_A    0.0000
   3831 C         118.8742  162.6783   70.0448 C.3     547      M_A    0.0000
   3832 O         117.9146  162.6061   68.9913 O.3     547      M_A    0.0000
   3833 H         120.6668  163.8234   70.4068 H       547      M_A    0.0000
   3834 H         119.9039  164.1795   68.8716 H       547      M_A    0.0000
   3835 H         118.4119  163.2746   70.8418 H       547      M_A    0.0000
   3836 H         119.0766  161.6886   70.4791 H       547      M_A    0.0000
   3837 C         116.7265  161.9679   69.4055 C.3     548      M_A    0.0000
   3838 C         116.9726  160.5171   69.8077 C.3     548      M_A    0.0000
   3839 O         115.8888  159.6920   69.3829 O.3     548      M_A    0.0000
   3840 H         116.2941  162.5168   70.2507 H       548      M_A    0.0000
   3841 H         115.9843  162.0193   68.6008 H       548      M_A    0.0000
   3842 H         117.0124  160.4341   70.9013 H       548      M_A    0.0000
   3843 H         117.9378  160.1441   69.4356 H       548      M_A    0.0000
   3844 C         115.4274  160.0503   68.0988 C.3     549      M_A    0.0000
   3845 C         116.5656  160.5183   67.1973 C.3     549      M_A    0.0000
   3846 O         117.4524  159.4373   66.9132 O.3     549      M_A    0.0000
   3847 H         114.9231  159.1911   67.6404 H       549      M_A    0.0000
   3848 H         114.6665  160.8338   68.1892 H       549      M_A    0.0000
   3849 H         117.1636  161.2791   67.7150 H       549      M_A    0.0000
   3850 H         116.1945  160.9925   66.2772 H       549      M_A    0.0000
   3851 C         116.7936  158.3752   66.2586 C.3     550      M_A    0.0000
   3852 C         117.6088  157.0867   66.3063 C.3     550      M_A    0.0000
   3853 O         116.9167  156.0869   67.0527 O.3     550      M_A    0.0000
   3854 H         115.8154  158.2104   66.7261 H       550      M_A    0.0000
   3855 H         116.5879  158.6575   65.2198 H       550      M_A    0.0000
   3856 H         118.5559  157.2630   66.8321 H       550      M_A    0.0000
   3857 H         117.8769  156.7309   65.3009 H       550      M_A    0.0000
   3858 C         117.7356  154.9697   67.3201 C.3     551      M_A    0.0000
   3859 C         118.8663  154.8392   66.3044 C.3     551      M_A    0.0000
   3860 O         120.0694  154.4237   66.9493 O.3     551      M_A    0.0000
   3861 H         118.1548  155.0589   68.3295 H       551      M_A    0.0000
   3862 H         117.1231  154.0608   67.3269 H       551      M_A    0.0000
   3863 H         119.0799  155.8175   65.8552 H       551      M_A    0.0000
   3864 H         118.5988  154.1709   65.4731 H       551      M_A    0.0000
   3865 C         121.1762  154.4677   66.0756 C.3     552      M_A    0.0000
   3866 C         120.9682  153.5812   64.8517 C.3     552      M_A    0.0000
   3867 O         120.6509  154.3756   63.7097 O.3     552      M_A    0.0000
   3868 H         121.3471  155.5030   65.7566 H       552      M_A    0.0000
   3869 H         122.0805  154.1652   66.6157 H       552      M_A    0.0000
   3870 H         120.1096  152.9171   65.0129 H       552      M_A    0.0000
   3871 H         121.8321  152.9271   64.6647 H       552      M_A    0.0000
   3872 C         121.7104  155.2385   63.3588 C.3     553      M_A    0.0000
   3873 C         123.0074  154.4736   63.1138 C.3     553      M_A    0.0000
   3874 O         122.7418  153.0805   62.9565 O.3     553      M_A    0.0000
   3875 H         121.4383  155.8014   62.4578 H       553      M_A    0.0000
   3876 H         121.8517  155.9842   64.1494 H       553      M_A    0.0000
   3877 H         123.6657  154.5647   63.9871 H       553      M_A    0.0000
   3878 H         123.5704  154.8791   62.2607 H       553      M_A    0.0000
   3879 C         123.9013  152.2997   63.1465 C.3     554      M_A    0.0000
   3880 C         125.1267  152.9372   62.4991 C.3     554      M_A    0.0000
   3881 O         125.9489  151.9379   61.8980 O.3     554      M_A    0.0000
   3882 H         124.0786  152.1667   64.2206 H       554      M_A    0.0000
   3883 H         123.7359  151.2950   62.7413 H       554      M_A    0.0000
   3884 H         125.7438  153.4234   63.2654 H       554      M_A    0.0000
   3885 H         124.8518  153.7235   61.7813 H       554      M_A    0.0000
   3886 C         127.3022  152.0762   62.2715 C.3     555      M_A    0.0000
   3887 C         127.5086  151.8195   63.7611 C.3     555      M_A    0.0000
   3888 O         128.6400  150.9755   63.9688 O.3     555      M_A    0.0000
   3889 H         127.9140  151.3773   61.6885 H       555      M_A    0.0000
   3890 H         127.6541  153.0795   62.0057 H       555      M_A    0.0000
   3891 H         126.6441  151.2819   64.1709 H       555      M_A    0.0000
   3892 H         127.5885  152.7550   64.3335 H       555      M_A    0.0000
   3893 C         128.7481  150.5630   65.3136 C.3     556      M_A    0.0000
   3894 C         129.9209  151.2352   66.0206 C.3     556      M_A    0.0000
   3895 O         131.0741  150.3959   65.9800 O.3     556      M_A    0.0000
   3896 H         127.8159  150.7965   65.8420 H       556      M_A    0.0000
   3897 H         128.8531  149.4728   65.3543 H       556      M_A    0.0000
   3898 H         129.6836  151.3809   67.0821 H       556      M_A    0.0000
   3899 H         130.1306  152.2344   65.6124 H       556      M_A    0.0000
   3900 C         131.9847  150.8020   64.9819 C.3     557      M_A    0.0000
   3901 C         133.3015  151.2882   65.5794 C.3     557      M_A    0.0000
   3902 O         134.4064  150.7097   64.8862 O.3     557      M_A    0.0000
   3903 H         132.1758  149.9639   64.3008 H       557      M_A    0.0000
   3904 H         131.5300  151.5898   64.3708 H       557      M_A    0.0000
   3905 H         133.3841  150.9557   66.6220 H       557      M_A    0.0000
   3906 H         133.3643  152.3858   65.6007 H       557      M_A    0.0000
   3907 C         135.6102  151.3965   65.1502 C.3     558      M_A    0.0000
   3908 C         136.8301  150.5911   64.7141 C.3     558      M_A    0.0000
   3909 O         137.9789  151.4332   64.6305 O.3     558      M_A    0.0000
   3910 H         135.6001  152.3618   64.6298 H       558      M_A    0.0000
   3911 H         135.6707  151.6306   66.2191 H       558      M_A    0.0000
   3912 H         136.6705  150.1873   63.7061 H       558      M_A    0.0000
   3913 H         137.0075  149.7248   65.3678 H       558      M_A    0.0000
   3914 C         137.8597  152.3835   63.5947 C.3     559      M_A    0.0000
   3915 C         139.2137  152.9650   63.1999 C.3     559      M_A    0.0000
   3916 O         139.2535  154.3647   63.4742 O.3     559      M_A    0.0000
   3917 H         137.3913  151.9134   62.7216 H       559      M_A    0.0000
   3918 H         137.1789  153.1829   63.9086 H       559      M_A    0.0000
   3919 H         139.3648  152.8590   62.1181 H       559      M_A    0.0000
   3920 H         140.0471  152.4326   63.6806 H       559      M_A    0.0000
   3921 C         140.5719  154.8665   63.4559 C.3     560      M_A    0.0000
   3922 C         141.4048  154.3149   64.6089 C.3     560      M_A    0.0000
   3923 O         142.7858  154.2776   64.2522 O.3     560      M_A    0.0000
   3924 H         141.0464  154.6083   62.5015 H       560      M_A    0.0000
   3925 H         140.5469  155.9615   63.4940 H       560      M_A    0.0000
   3926 H         141.1128  153.2779   64.8181 H       560      M_A    0.0000
   3927 H         141.2404  154.8748   65.5410 H       560      M_A    0.0000
   3928 C         143.1419  155.3565   63.4158 C.3     561      M_A    0.0000
   3929 C         144.5723  155.2273   62.9015 C.3     561      M_A    0.0000
   3930 O         145.3337  156.3820   63.2522 O.3     561      M_A    0.0000
   3931 H         142.4479  155.4042   62.5680 H       561      M_A    0.0000
   3932 H         143.0171  156.2987   63.9614 H       561      M_A    0.0000
   3933 H         144.5724  155.1800   61.8051 H       561      M_A    0.0000
   3934 H         145.0536  154.3018   63.2494 H       561      M_A    0.0000
   3935 C         146.6475  156.0467   63.6418 C.3     562      M_A    0.0000
   3936 C         147.3259  155.1355   62.6237 C.3     562      M_A    0.0000
   3937 O         148.7090  154.9803   62.9381 O.3     562      M_A    0.0000
   3938 H         147.2357  156.9640   63.7655 H       562      M_A    0.0000
   3939 H         146.6256  155.5671   64.6270 H       562      M_A    0.0000
   3940 H         147.2863  155.5937   61.6272 H       562      M_A    0.0000
   3941 H         146.8173  154.1644   62.5361 H       562      M_A    0.0000
   3942 C         148.8977  154.4556   64.2340 C.3     563      M_A    0.0000
   3943 C         149.9533  153.3544   64.2520 C.3     563      M_A    0.0000
   3944 O         150.7074  153.4072   65.4621 O.3     563      M_A    0.0000
   3945 H         149.1953  155.2631   64.9138 H       563      M_A    0.0000
   3946 H         147.9439  154.0750   64.6168 H       563      M_A    0.0000
   3947 H         150.6700  153.5105   63.4356 H       563      M_A    0.0000
   3948 H         149.5141  152.3595   64.0895 H       563      M_A    0.0000
   3949 C         151.8219  152.5429   65.4249 C.3     564      M_A    0.0000
   3950 C         151.4142  151.1046   65.1214 C.3     564      M_A    0.0000
   3951 O         152.5212  150.3737   64.5958 O.3     564      M_A    0.0000
   3952 H         152.5296  152.8941   64.6644 H       564      M_A    0.0000
   3953 H         152.3559  152.5938   66.3805 H       564      M_A    0.0000
   3954 H         150.6399  151.0918   64.3437 H       564      M_A    0.0000
   3955 H         150.9773  150.6059   65.9986 H       564      M_A    0.0000
   3956 C         153.6853  150.5524   65.3725 C.3     565      M_A    0.0000
   3957 C         154.6447  149.3742   65.2360 C.3     565      M_A    0.0000
   3958 O         155.9800  149.8390   65.0442 O.3     565      M_A    0.0000
   3959 H         154.1897  151.4764   65.0650 H       565      M_A    0.0000
   3960 H         153.4058  150.6962   66.4224 H       565      M_A    0.0000
   3961 H         154.3917  148.7878   64.3435 H       565      M_A    0.0000
   3962 H         154.5731  148.6832   66.0884 H       565      M_A    0.0000
   3963 C         156.9329  148.8975   65.4869 C.3     566      M_A    0.0000
   3964 C         158.1521  148.8511   64.5712 C.3     566      M_A    0.0000
   3965 O         159.3439  148.6810   65.3372 O.3     566      M_A    0.0000
   3966 H         157.2469  149.1496   66.5070 H       566      M_A    0.0000
   3967 H         156.4666  147.9078   65.5505 H       566      M_A    0.0000
   3968 H         158.2595  149.8072   64.0433 H       566      M_A    0.0000
   3969 H         158.0548  148.0797   63.7937 H       566      M_A    0.0000
   3970 C         160.4628  149.2621   64.7043 C.3     567      M_A    0.0000
   3971 C         161.5344  148.2251   64.3824 C.3     567      M_A    0.0000
   3972 O         162.5347  148.7891   63.5356 O.3     567      M_A    0.0000
   3973 H         160.1414  149.7592   63.7811 H       567      M_A    0.0000
   3974 H         160.8758  150.0506   65.3436 H       567      M_A    0.0000
   3975 H         161.0915  147.3914   63.8227 H       567      M_A    0.0000
   3976 H         161.9710  147.7874   65.2918 H       567      M_A    0.0000
   3977 C         163.4363  147.8118   63.0642 C.3     568      M_A    0.0000
   3978 C         164.8862  148.1970   63.3411 C.3     568      M_A    0.0000
   3979 O         165.5976  147.0919   63.8966 O.3     568      M_A    0.0000
   3980 H         163.2126  146.8499   63.5411 H       568      M_A    0.0000
   3981 H         163.2813  147.6592   61.9900 H       568      M_A    0.0000
   3982 H         164.9236  148.9962   64.0923 H       568      M_A    0.0000
   3983 H         165.3858  148.5934   62.4453 H       568      M_A    0.0000
   3984 C         166.9765  147.1547   63.6053 C.3     569      M_A    0.0000
   3985 C         167.8260  147.1203   64.8720 C.3     569      M_A    0.0000
   3986 O         168.8302  146.1116   64.7708 O.3     569      M_A    0.0000
   3987 H         167.2497  146.3149   62.9550 H       569      M_A    0.0000
   3988 H         167.1877  148.0631   63.0298 H       569      M_A    0.0000
   3989 H         167.2022  146.8482   65.7330 H       569      M_A    0.0000
   3990 H         168.2594  148.1037   65.1047 H       569      M_A    0.0000
   3991 C         170.0020  146.4646   65.4727 C.3     570      M_A    0.0000
   3992 C         170.4545  145.3540   66.4157 C.3     570      M_A    0.0000
   3993 O         171.7269  144.8479   66.0146 O.3     570      M_A    0.0000
   3994 H         170.8016  146.6890   64.7565 H       570      M_A    0.0000
   3995 H         169.8284  147.3912   66.0314 H       570      M_A    0.0000
   3996 H         169.7560  144.5093   66.3606 H       570      M_A    0.0000
   3997 H         170.4594  145.6810   67.4655 H       570      M_A    0.0000
   3998 C         171.9560  143.5478   66.5123 C.3     571      M_A    0.0000
   3999 C         173.2572  142.9572   65.9782 C.3     571      M_A    0.0000
   4000 O         173.6617  141.8434   66.7730 O.3     571      M_A    0.0000
   4001 H         171.9868  143.5778   67.6081 H       571      M_A    0.0000
   4002 H         171.1096  142.9022   66.2518 H       571      M_A    0.0000
   4003 H         174.0629  143.6984   66.0542 H       571      M_A    0.0000
   4004 H         173.1831  142.6916   64.9137 H       571      M_A    0.0000
   4005 C         174.6828  141.0960   66.1494 C.3     572      M_A    0.0000
   4006 C         175.2309  141.8045   64.9146 C.3     572      M_A    0.0000
   4007 O         176.6234  141.5336   64.7621 O.3     572      M_A    0.0000
   4008 H         175.4949  140.9212   66.8654 H       572      M_A    0.0000
   4009 H         174.2988  140.1053   65.8810 H       572      M_A    0.0000
   4010 H         175.1403  142.8914   65.0363 H       572      M_A    0.0000
   4011 H         174.6650  141.5484   64.0071 H       572      M_A    0.0000
   4012 C         177.1774  142.2295   63.6671 C.3     573      M_A    0.0000
   4013 C         178.5469  142.8133   64.0002 C.3     573      M_A    0.0000
   4014 O         179.3546  142.8896   62.8264 O.3     573      M_A    0.0000
   4015 H         177.2643  141.5503   62.8104 H       573      M_A    0.0000
   4016 H         176.4908  143.0241   63.3538 H       573      M_A    0.0000
   4017 H         179.0767  142.1499   64.6958 H       573      M_A    0.0000
   4018 H         178.4684  143.7876   64.5039 H       573      M_A    0.0000
   4019 C         180.7174  142.6608   63.1105 C.3     574      M_A    0.0000
   4020 C         181.6154  143.7120   62.4656 C.3     574      M_A    0.0000
   4021 O         182.8597  143.7969   63.1587 O.3     574      M_A    0.0000
   4022 H         180.8681  142.6631   64.1967 H       574      M_A    0.0000
   4023 H         180.9988  141.6583   62.7688 H       574      M_A    0.0000
   4024 H         181.1494  144.7023   62.5471 H       574      M_A    0.0000
   4025 H         181.7600  143.5277   61.3912 H       574      M_A    0.0000
   4026 C         183.9438  143.9715   62.2729 C.3     575      M_A    0.0000
   4027 C         185.1726  144.5300   62.9836 C.3     575      M_A    0.0000
   4028 O         186.3622  143.9460   62.4547 O.3     575      M_A    0.0000
   4029 H         184.1920  143.0099   61.8075 H       575      M_A    0.0000
   4030 H         183.6434  144.6346   61.4537 H       575      M_A    0.0000
   4031 H         185.1440  144.2605   64.0471 H       575      M_A    0.0000
   4032 H         185.2072  145.6285   62.9457 H       575      M_A    0.0000
   4033 C         187.4539  144.8381   62.5074 C.3     576      M_A    0.0000
   4034 C         188.7858  144.1153   62.3323 C.3     576      M_A    0.0000
   4035 O         189.7595  144.6402   63.2336 O.3     576      M_A    0.0000
   4036 H         187.3409  145.5982   61.7250 H       576      M_A    0.0000
   4037 H         187.4372  145.3804   63.4596 H       576      M_A    0.0000
   4038 H         189.1760  144.2904   61.3216 H       576      M_A    0.0000
   4039 H         188.6806  143.0257   62.4369 H       576      M_A    0.0000
   4040 C         190.8777  143.7885   63.3537 C.3     577      M_A    0.0000
   4041 C         190.5185  142.4740   64.0393 C.3     577      M_A    0.0000
   4042 O         191.3502  141.4186   63.5596 O.3     577      M_A    0.0000
   4043 H         191.2886  143.5848   62.3575 H       577      M_A    0.0000
   4044 H         191.6711  144.3027   63.9079 H       577      M_A    0.0000
   4045 H         189.4879  142.1916   63.7893 H       577      M_A    0.0000
   4046 H         190.5575  142.5564   65.1352 H       577      M_A    0.0000
   4047 C         190.9530  140.1640   64.0680 C.3     578      M_A    0.0000
   4048 C         191.8421  139.0362   63.5535 C.3     578      M_A    0.0000
   4049 O         192.6973  138.5627   64.5930 O.3     578      M_A    0.0000
   4050 H         190.9853  140.1886   65.1639 H       578      M_A    0.0000
   4051 H         189.9068  139.9760   63.8011 H       578      M_A    0.0000
   4052 H         192.5009  139.4120   62.7603 H       578      M_A    0.0000
   4053 H         191.2560  138.2206   63.1059 H       578      M_A    0.0000
   4054 C         193.7443  139.4681   64.8654 C.3     579      M_A    0.0000
   4055 C         195.1143  138.8272   64.6672 C.3     579      M_A    0.0000
   4056 O         196.0435  139.3320   65.6252 O.3     579      M_A    0.0000
   4057 H         193.6482  140.3431   64.2113 H       579      M_A    0.0000
   4058 H         193.6446  139.8447   65.8898 H       579      M_A    0.0000
   4059 H         195.5132  139.0954   63.6806 H       579      M_A    0.0000
   4060 H         195.0630  137.7290   64.6900 H       579      M_A    0.0000
   4061 C         197.0835  138.4142   65.8829 C.3     580      M_A    0.0000
   4062 C         197.2242  137.3875   64.7634 C.3     580      M_A    0.0000
   4063 O         198.4121  136.6173   64.9405 O.3     580      M_A    0.0000
   4064 H         198.0275  138.9588   66.0048 H       580      M_A    0.0000
   4065 H         196.8991  137.9119   66.8393 H       580      M_A    0.0000
   4066 H         197.3301  137.8991   63.7982 H       580      M_A    0.0000
   4067 H         196.3340  136.7478   64.6763 H       580      M_A    0.0000
   4068 C         198.2291  135.2727   64.5546 C.3     581      M_A    0.0000
   4069 C         197.2361  134.5525   65.4614 C.3     581      M_A    0.0000
   4070 O         197.0308  133.2141   65.0113 O.3     581      M_A    0.0000
   4071 H         197.8748  135.2367   63.5174 H       581      M_A    0.0000
   4072 H         199.1954  134.7557   64.5615 H       581      M_A    0.0000
   4073 H         196.2578  135.0473   65.4118 H       581      M_A    0.0000
   4074 H         197.5435  134.5840   66.5168 H       581      M_A    0.0000
   4075 C         196.8688  132.3167   66.0877 C.3     582      M_A    0.0000
   4076 C         197.3078  130.9031   65.7186 C.3     582      M_A    0.0000
   4077 O         198.5488  130.5869   66.3477 O.3     582      M_A    0.0000
   4078 H         197.4501  132.6709   66.9476 H       582      M_A    0.0000
   4079 H         195.8214  132.3181   66.4104 H       582      M_A    0.0000
   4080 H         197.4851  130.8372   64.6376 H       582      M_A    0.0000
   4081 H         196.5332  130.1573   65.9492 H       582      M_A    0.0000
   4082 C         199.2421  129.5685   65.6602 C.3     583      M_A    0.0000
   4083 C         200.6115  129.2993   66.2761 C.3     583      M_A    0.0000
   4084 O         200.6742  127.9690   66.7882 O.3     583      M_A    0.0000
   4085 H         198.6445  128.6490   65.6728 H       583      M_A    0.0000
   4086 H         199.3469  129.8458   64.6051 H       583      M_A    0.0000
   4087 H         200.7740  129.9666   67.1321 H       583      M_A    0.0000
   4088 H         201.4288  129.5018   65.5688 H       583      M_A    0.0000
   4089 C         202.0048  127.5465   66.9918 C.3     584      M_A    0.0000
   4090 C         202.8948  128.6878   67.4738 C.3     584      M_A    0.0000
   4091 O         203.2201  128.5174   68.8526 O.3     584      M_A    0.0000
   4092 H         202.0196  126.7318   67.7258 H       584      M_A    0.0000
   4093 H         202.3999  127.1221   66.0619 H       584      M_A    0.0000
   4094 H         202.3540  129.6400   67.4005 H       584      M_A    0.0000
   4095 H         203.7964  128.7977   66.8539 H       584      M_A    0.0000
   4096 C         204.6021  128.6728   69.0896 C.3     585      M_A    0.0000
   4097 C         204.9549  128.4473   70.5566 C.3     585      M_A    0.0000
   4098 O         206.1150  127.6242   70.6689 O.3     585      M_A    0.0000
   4099 H         205.1604  127.9667   68.4632 H       585      M_A    0.0000
   4100 H         204.9174  129.6730   68.7715 H       585      M_A    0.0000
   4101 H         204.1428  127.9046   71.0570 H       585      M_A    0.0000
   4102 H         205.0738  129.3945   71.1024 H       585      M_A    0.0000
   4103 C         206.3586  127.2389   72.0040 C.3     586      M_A    0.0000
   4104 C         207.8255  126.8893   72.2348 C.3     586      M_A    0.0000
   4105 O         208.0830  126.7165   73.6275 O.3     586      M_A    0.0000
   4106 H         206.0629  128.0524   72.6774 H       586      M_A    0.0000
   4107 H         205.7191  126.3868   72.2610 H       586      M_A    0.0000
   4108 H         208.4637  127.7186   71.9043 H       586      M_A    0.0000
   4109 H         208.1366  126.0105   71.6516 H       586      M_A    0.0000
   4110 C         209.3705  127.1699   73.9840 C.3     587      M_A    0.0000
   4111 C         210.4602  126.2134   73.5100 C.3     587      M_A    0.0000
   4112 O         211.7450  126.6801   73.9192 O.3     587      M_A    0.0000
   4113 H         209.5388  128.1639   73.5524 H       587      M_A    0.0000
   4114 H         209.4243  127.2999   75.0709 H       587      M_A    0.0000
   4115 H         210.4790  126.1824   72.4131 H       587      M_A    0.0000
   4116 H         210.2770  125.1817   73.8437 H       587      M_A    0.0000
   4117 C         212.7767  125.8136   73.5007 C.3     588      M_A    0.0000
   4118 C         212.6441  124.4294   74.1281 C.3     588      M_A    0.0000
   4119 O         213.7735  123.6225   73.7972 O.3     588      M_A    0.0000
   4120 H         212.7579  125.7266   72.4077 H       588      M_A    0.0000
   4121 H         213.7483  126.2540   73.7518 H       588      M_A    0.0000
   4122 H         211.7668  123.9147   73.7159 H       588      M_A    0.0000
   4123 H         212.4868  124.4826   75.2151 H       588      M_A    0.0000
   4124 C         214.9896  124.2880   74.0591 C.3     589      M_A    0.0000
   4125 C         215.9759  123.3945   74.8047 C.3     589      M_A    0.0000
   4126 O         217.1455  123.1779   74.0167 O.3     589      M_A    0.0000
   4127 H         215.4342  124.6193   73.1129 H       589      M_A    0.0000
   4128 H         214.7911  125.1992   74.6346 H       589      M_A    0.0000
   4129 H         215.5307  122.4056   74.9731 H       589      M_A    0.0000
   4130 H         216.2236  123.7935   75.7990 H       589      M_A    0.0000
   4131 C         218.2096  122.6622   74.7862 C.3     590      M_A    0.0000
   4132 C         217.7093  121.7879   75.9319 C.3     590      M_A    0.0000
   4133 O         218.4704  120.5835   76.0082 O.3     590      M_A    0.0000
   4134 H         218.8761  122.0781   74.1403 H       590      M_A    0.0000
   4135 H         218.8144  123.4895   75.1746 H       590      M_A    0.0000
   4136 H         216.6712  121.4847   75.7448 H       590      M_A    0.0000
   4137 H         217.7041  122.3272   76.8902 H       590      M_A    0.0000
   4138 C         219.6396  120.7487   76.7803 C.3     591      M_A    0.0000
   4139 C         220.8050  121.2638   75.9416 C.3     591      M_A    0.0000
   4140 O         221.6136  122.1558   76.7074 O.3     591      M_A    0.0000
   4141 H         219.4380  121.4479   77.6008 H       591      M_A    0.0000
   4142 H         219.9028  119.7959   77.2535 H       591      M_A    0.0000
   4143 H         220.4256  121.8453   75.0917 H       591      M_A    0.0000
   4144 H         221.3986  120.4436   75.5126 H       591      M_A    0.0000
   4145 C         222.5327  121.4629   77.5232 C.3     592      M_A    0.0000
   4146 C         223.4816  122.4154   78.2441 C.3     592      M_A    0.0000
   4147 O         223.6720  122.0002   79.5958 O.3     592      M_A    0.0000
   4148 H         221.9850  120.8612   78.2585 H       592      M_A    0.0000
   4149 H         223.0992  120.7509   76.9124 H       592      M_A    0.0000
   4150 H         223.0402  123.4191   78.2896 H       592      M_A    0.0000
   4151 H         224.4385  122.5241   77.7134 H       592      M_A    0.0000
   4152 C         224.7880  122.6293   80.1865 C.3     593      M_A    0.0000
   4153 C         224.7715  122.5030   81.7067 C.3     593      M_A    0.0000
   4154 O         226.0924  122.2921   82.2032 O.3     593      M_A    0.0000
   4155 H         225.7087  122.1851   79.7894 H       593      M_A    0.0000
   4156 H         224.8109  123.6848   79.8924 H       593      M_A    0.0000
   4157 H         224.1873  121.6221   82.0022 H       593      M_A    0.0000
   4158 H         224.2896  123.3668   82.1871 H       593      M_A    0.0000
   4159 C         226.2690  122.8571   83.4838 C.3     594      M_A    0.0000
   4160 C         227.4515  122.2351   84.2201 C.3     594      M_A    0.0000
   4161 O         228.5186  123.1755   84.3323 O.3     594      M_A    0.0000
   4162 H         226.4225  123.9386   83.3864 H       594      M_A    0.0000
   4163 H         225.3497  122.7342   84.0675 H       594      M_A    0.0000
   4164 H         227.8466  121.3884   83.6444 H       594      M_A    0.0000
   4165 H         227.1605  121.8312   85.2006 H       594      M_A    0.0000
   4166 C         229.0777  123.4885   83.0754 C.3     595      M_A    0.0000
   4167 C         229.8644  122.3166   82.4969 C.3     595      M_A    0.0000
   4168 O         231.1764  122.7341   82.1223 O.3     595      M_A    0.0000
   4169 H         228.2774  123.7738   82.3820 H       595      M_A    0.0000
   4170 H         229.7223  124.3696   83.1712 H       595      M_A    0.0000
   4171 H         229.3813  121.9591   81.5786 H       595      M_A    0.0000
   4172 H         229.8914  121.4587   83.1842 H       595      M_A    0.0000
   4173 C         232.0903  122.6168   83.1906 C.3     596      M_A    0.0000
   4174 C         232.3444  121.1591   83.5620 C.3     596      M_A    0.0000
   4175 O         233.2233  121.0769   84.6831 O.3     596      M_A    0.0000
   4176 H         233.0365  123.0975   82.9146 H       596      M_A    0.0000
   4177 H         231.7122  123.1703   84.0576 H       596      M_A    0.0000
   4178 H         232.8515  120.6457   82.7351 H       596      M_A    0.0000
   4179 H         231.4086  120.6092   83.7378 H       596      M_A    0.0000
   4180 C         233.0003  122.1226   85.6035 C.3     597      M_A    0.0000
   4181 C         231.5413  122.5680   85.6133 C.3     597      M_A    0.0000
   4182 O         230.8085  121.8509   86.6057 O.3     597      M_A    0.0000
   4183 H         233.2919  121.7920   86.6076 H       597      M_A    0.0000
   4184 H         233.6548  122.9678   85.3621 H       597      M_A    0.0000
   4185 H         231.0711  122.3290   84.6509 H       597      M_A    0.0000
   4186 H         231.4430  123.6556   85.7420 H       597      M_A    0.0000
   4187 C         229.5927  121.3460   86.0986 C.3     598      M_A    0.0000
   4188 C         229.7009  119.8691   85.7319 C.3     598      M_A    0.0000
   4189 O         229.0856  119.0609   86.7339 O.3     598      M_A    0.0000
   4190 H         228.8016  121.4837   86.8456 H       598      M_A    0.0000
   4191 H         229.2886  121.9339   85.2252 H       598      M_A    0.0000
   4192 H         230.7558  119.5686   85.6990 H       598      M_A    0.0000
   4193 H         229.2905  119.6611   84.7331 H       598      M_A    0.0000
   4194 C         228.1159  119.7784   87.4656 C.3     599      M_A    0.0000
   4195 C         226.7070  119.5294   86.9362 C.3     599      M_A    0.0000
   4196 O         225.7538  119.6237   87.9937 O.3     599      M_A    0.0000
   4197 H         228.1695  119.4892   88.5220 H       599      M_A    0.0000
   4198 H         228.3512  120.8482   87.4332 H       599      M_A    0.0000
   4199 H         226.6307  118.5075   86.5433 H       599      M_A    0.0000
   4200 H         226.4558  120.1994   86.1013 H       599      M_A    0.0000
   4201 C         225.3305  120.9532   88.2026 C.3     600      M_A    0.0000
   4202 C         224.5183  121.4815   87.0243 C.3     600      M_A    0.0000
   4203 O         223.4981  122.3686   87.4806 O.3     600      M_A    0.0000
   4204 H         224.7286  121.0040   89.1179 H       600      M_A    0.0000
   4205 H         226.2037  121.5913   88.3797 H       600      M_A    0.0000
   4206 H         224.0033  120.6518   86.5234 H       600      M_A    0.0000
   4207 H         225.1558  121.9526   86.2622 H       600      M_A    0.0000
   4208 C         222.5645  122.6629   86.4646 C.3     601      M_A    0.0000
   4209 C         222.4665  121.5363   85.4407 C.3     601      M_A    0.0000
   4210 O         221.1260  121.4069   84.9696 O.3     601      M_A    0.0000
   4211 H         221.5801  122.8390   86.9148 H       601      M_A    0.0000
   4212 H         222.8436  123.6015   85.9725 H       601      M_A    0.0000
   4213 H         222.7205  120.5788   85.9132 H       601      M_A    0.0000
   4214 H         223.1777  121.6687   84.6125 H       601      M_A    0.0000
   4215 C         220.8177  120.0751   84.6208 C.3     602      M_A    0.0000
   4216 C         219.8480  120.0066   83.4451 C.3     602      M_A    0.0000
   4217 O         219.9643  118.7517   82.7762 O.3     602      M_A    0.0000
   4218 H         221.7421  119.5418   84.3681 H       602      M_A    0.0000
   4219 H         220.3986  119.5570   85.4908 H       602      M_A    0.0000
   4220 H         220.1038  120.7751   82.7045 H       602      M_A    0.0000
   4221 H         218.8119  120.2089   83.7529 H       602      M_A    0.0000
   4222 C         218.7075  118.1407   82.5830 C.3     603      M_A    0.0000
   4223 C         218.5136  117.6861   81.1398 C.3     603      M_A    0.0000
   4224 O         217.5480  116.6378   81.0733 O.3     603      M_A    0.0000
   4225 H         218.6137  117.2803   83.2566 H       603      M_A    0.0000
   4226 H         217.9135  118.8384   82.8724 H       603      M_A    0.0000
   4227 H         219.4504  117.2668   80.7511 H       603      M_A    0.0000
   4228 H         218.2522  118.5225   80.4756 H       603      M_A    0.0000
   4229 C         216.2561  117.0910   81.4138 C.3     604      M_A    0.0000
   4230 C         215.2387  116.7770   80.3213 C.3     604      M_A    0.0000
   4231 O         213.9131  116.8240   80.8470 O.3     604      M_A    0.0000
   4232 H         215.9428  116.6236   82.3551 H       604      M_A    0.0000
   4233 H         216.2862  118.1692   81.6076 H       604      M_A    0.0000
   4234 H         215.3882  115.7535   79.9544 H       604      M_A    0.0000
   4235 H         215.3538  117.4363   79.4488 H       604      M_A    0.0000
   4236 C         212.9672  117.1660   79.8577 C.3     605      M_A    0.0000
   4237 C         211.5607  116.7136   80.2373 C.3     605      M_A    0.0000
   4238 O         210.5873  117.6018   79.6900 O.3     605      M_A    0.0000
   4239 H         212.9769  118.2519   79.7049 H       605      M_A    0.0000
   4240 H         213.2639  116.7238   78.8998 H       605      M_A    0.0000
   4241 H         211.4364  116.7542   81.3269 H       605      M_A    0.0000
   4242 H         211.3698  115.6709   79.9447 H       605      M_A    0.0000
   4243 C         210.2351  117.2473   78.3707 C.3     606      M_A    0.0000
   4244 C         209.0246  118.0329   77.8763 C.3     606      M_A    0.0000
   4245 O         208.8808  117.8894   76.4640 O.3     606      M_A    0.0000
   4246 H         211.0883  117.4269   77.7055 H       606      M_A    0.0000
   4247 H         210.0361  116.1707   78.3222 H       606      M_A    0.0000
   4248 H         209.1725  119.1042   78.0632 H       606      M_A    0.0000
   4249 H         208.1048  117.7518   78.4093 H       606      M_A    0.0000
   4250 C         207.5691  118.1847   76.0365 C.3     607      M_A    0.0000
   4251 C         206.9526  119.3234   76.8431 C.3     607      M_A    0.0000
   4252 O         205.9998  120.0338   76.0537 O.3     607      M_A    0.0000
   4253 H         207.5844  118.4520   74.9731 H       607      M_A    0.0000
   4254 H         206.9485  117.2847   76.1126 H       607      M_A    0.0000
   4255 H         207.7283  120.0498   77.1171 H       607      M_A    0.0000
   4256 H         206.5151  118.9697   77.7879 H       607      M_A    0.0000
   4257 C         204.9013  120.4712   76.8233 C.3     608      M_A    0.0000
   4258 C         204.7315  121.9859   76.7599 C.3     608      M_A    0.0000
   4259 O         203.3496  122.3351   76.8246 O.3     608      M_A    0.0000
   4260 H         203.9877  119.9821   76.4643 H       608      M_A    0.0000
   4261 H         205.0298  120.1456   77.8618 H       608      M_A    0.0000
   4262 H         205.0995  122.3632   75.7973 H       608      M_A    0.0000
   4263 H         205.3175  122.4994   77.5358 H       608      M_A    0.0000
   4264 C         202.6448  121.9055   75.6805 C.3     609      M_A    0.0000
   4265 C         201.3099  122.6288   75.5318 C.3     609      M_A    0.0000
   4266 O         201.4383  123.7314   74.6353 O.3     609      M_A    0.0000
   4267 H         203.2591  122.0777   74.7886 H       609      M_A    0.0000
   4268 H         202.4870  120.8223   75.7337 H       609      M_A    0.0000
   4269 H         201.0042  123.0513   76.4974 H       609      M_A    0.0000
   4270 H         200.5034  121.9472   75.2251 H       609      M_A    0.0000
   4271 C         200.4912  124.7415   74.9056 C.3     610      M_A    0.0000
   4272 C         199.0732  124.1840   74.9807 C.3     610      M_A    0.0000
   4273 O         198.1953  125.1351   75.5812 O.3     610      M_A    0.0000
   4274 H         200.7445  125.2341   75.8521 H       610      M_A    0.0000
   4275 H         200.5547  125.5180   74.1349 H       610      M_A    0.0000
   4276 H         199.0541  123.2969   75.6265 H       610      M_A    0.0000
   4277 H         198.7063  123.8563   73.9972 H       610      M_A    0.0000
   4278 C         197.3239  125.7161   74.6359 C.3     611      M_A    0.0000
   4279 C         196.4947  126.8420   75.2458 C.3     611      M_A    0.0000
   4280 O         195.9191  127.6488   74.2193 O.3     611      M_A    0.0000
   4281 H         197.9080  126.1033   73.7923 H       611      M_A    0.0000
   4282 H         196.6683  124.9429   74.2195 H       611      M_A    0.0000
   4283 H         197.1413  127.5063   75.8332 H       611      M_A    0.0000
   4284 H         195.7316  126.4623   75.9406 H       611      M_A    0.0000
   4285 C         194.6895  127.1256   73.7671 C.3     612      M_A    0.0000
   4286 C         193.6020  128.1944   73.7183 C.3     612      M_A    0.0000
   4287 O         192.7445  127.9813   72.5979 O.3     612      M_A    0.0000
   4288 H         194.8240  126.6902   72.7697 H       612      M_A    0.0000
   4289 H         194.3822  126.2993   74.4182 H       612      M_A    0.0000
   4290 H         194.0561  129.1831   73.5748 H       612      M_A    0.0000
   4291 H         193.0356  128.2497   74.6592 H       612      M_A    0.0000
   4292 C         191.8225  129.0365   72.4337 C.3     613      M_A    0.0000
   4293 C         191.6490  129.8429   73.7169 C.3     613      M_A    0.0000
   4294 O         190.9777  131.0723   73.4454 O.3     613      M_A    0.0000
   4295 H         192.1641  129.6960   71.6268 H       613      M_A    0.0000
   4296 H         190.8586  128.6317   72.1050 H       613      M_A    0.0000
   4297 H         192.6316  130.1122   74.1248 H       613      M_A    0.0000
   4298 H         191.1384  129.2653   74.5010 H       613      M_A    0.0000
   4299 C         189.7341  130.8636   72.8129 C.3     614      M_A    0.0000
   4300 C         188.7959  132.0519   73.0002 C.3     614      M_A    0.0000
   4301 O         187.6512  131.9201   72.1587 O.3     614      M_A    0.0000
   4302 H         189.8953  130.6859   71.7428 H       614      M_A    0.0000
   4303 H         189.2736  129.9495   73.2046 H       614      M_A    0.0000
   4304 H         189.2992  132.9774   72.6926 H       614      M_A    0.0000
   4305 H         188.5125  132.1915   74.0535 H       614      M_A    0.0000
   4306 C         186.6420  131.1410   72.7626 C.3     615      M_A    0.0000
   4307 C         185.2725  131.8044   72.6547 C.3     615      M_A    0.0000
   4308 O         184.2452  130.8169   72.5820 O.3     615      M_A    0.0000
   4309 H         186.6117  130.1530   72.2876 H       615      M_A    0.0000
   4310 H         186.8971  130.9630   73.8134 H       615      M_A    0.0000
   4311 H         185.2098  132.3829   71.7242 H       615      M_A    0.0000
   4312 H         185.0941  132.5174   73.4727 H       615      M_A    0.0000
   4313 C         184.3147  130.0734   71.3851 C.3     616      M_A    0.0000
   4314 C         183.0602  129.2336   71.1654 C.3     616      M_A    0.0000
   4315 O         183.3401  127.8525   71.3892 O.3     616      M_A    0.0000
   4316 H         184.4535  130.7575   70.5393 H       616      M_A    0.0000
   4317 H         185.2034  129.4325   71.4040 H       616      M_A    0.0000
   4318 H         182.7334  129.3162   70.1210 H       616      M_A    0.0000
   4319 H         182.2176  129.5826   71.7797 H       616      M_A    0.0000
   4320 C         183.9078  127.6308   72.6615 C.3     617      M_A    0.0000
   4321 C         183.1480  128.3703   73.7583 C.3     617      M_A    0.0000
   4322 O         182.2812  127.4755   74.4537 O.3     617      M_A    0.0000
   4323 H         183.9114  126.5553   72.8760 H       617      M_A    0.0000
   4324 H         184.9591  127.9400   72.6516 H       617      M_A    0.0000
   4325 H         182.5038  129.1393   73.3133 H       617      M_A    0.0000
   4326 H         183.8255  128.8969   74.4460 H       617      M_A    0.0000
   4327 C         180.9675  127.5114   73.9407 C.3     618      M_A    0.0000
   4328 C         180.2434  128.7979   74.3252 C.3     618      M_A    0.0000
   4329 O         178.9895  128.8846   73.6498 O.3     618      M_A    0.0000
   4330 H         181.0007  127.4191   72.8484 H       618      M_A    0.0000
   4331 H         180.4105  126.6389   74.3005 H       618      M_A    0.0000
   4332 H         180.8288  129.6676   74.0004 H       618      M_A    0.0000
   4333 H         180.1263  128.8955   75.4142 H       618      M_A    0.0000
   4334 C         178.6238  130.2222   73.3902 C.3     619      M_A    0.0000
   4335 C         177.1439  130.4693   73.6664 C.3     619      M_A    0.0000
   4336 O         176.8085  131.8306   73.4016 O.3     619      M_A    0.0000
   4337 H         179.2316  130.8925   74.0098 H       619      M_A    0.0000
   4338 H         178.8639  130.4717   72.3505 H       619      M_A    0.0000
   4339 H         176.9289  130.3005   74.7292 H       619      M_A    0.0000
   4340 H         176.4988  129.7755   73.1081 H       619      M_A    0.0000
   4341 C         175.4681  132.1162   73.7361 C.3     620      M_A    0.0000
   4342 C         174.4898  131.2544   72.9441 C.3     620      M_A    0.0000
   4343 O         173.1810  131.8210   72.9851 O.3     620      M_A    0.0000
   4344 H         175.3182  131.9524   74.8101 H       620      M_A    0.0000
   4345 H         175.2664  133.1793   73.5620 H       620      M_A    0.0000
   4346 H         174.4098  130.2611   73.4039 H       620      M_A    0.0000
   4347 H         174.8290  131.0887   71.9112 H       620      M_A    0.0000
   4348 C         172.9936  132.7850   71.9723 C.3     621      M_A    0.0000
   4349 C         171.5970  133.3967   72.0228 C.3     621      M_A    0.0000
   4350 O         171.6730  134.8190   71.9387 O.3     621      M_A    0.0000
   4351 H         173.7465  133.5753   72.0783 H       621      M_A    0.0000
   4352 H         173.1732  132.3264   70.9933 H       621      M_A    0.0000
   4353 H         171.1245  133.1702   72.9871 H       621      M_A    0.0000
   4354 H         170.9354  132.9784   71.2505 H       621      M_A    0.0000
   4355 C         170.4219  135.3950   71.6330 C.3     622      M_A    0.0000
   4356 C         169.3031  134.8077   72.4878 C.3     622      M_A    0.0000
   4357 O         168.6940  135.8267   73.2793 O.3     622      M_A    0.0000
   4358 H         170.4733  136.4796   71.7869 H       622      M_A    0.0000
   4359 H         170.2036  135.2512   70.5688 H       622      M_A    0.0000
   4360 H         169.7168  134.0759   73.1933 H       622      M_A    0.0000
   4361 H         168.5623  134.2660   71.8819 H       622      M_A    0.0000
   4362 C         168.3628  136.9621   72.5101 C.3     623      M_A    0.0000
   4363 C         167.0387  137.5788   72.9501 C.3     623      M_A    0.0000
   4364 O         166.6884  138.6672   72.0966 O.3     623      M_A    0.0000
   4365 H         169.1634  137.7065   72.5968 H       623      M_A    0.0000
   4366 H         168.3208  136.6861   71.4503 H       623      M_A    0.0000
   4367 H         167.1391  137.9987   73.9591 H       623      M_A    0.0000
   4368 H         166.2343  136.8312   73.0068 H       623      M_A    0.0000
   4369 C         165.4337  139.2170   72.4342 C.3     624      M_A    0.0000
   4370 C         164.4475  139.1346   71.2733 C.3     624      M_A    0.0000
   4371 O         163.1095  139.2859   71.7449 O.3     624      M_A    0.0000
   4372 H         165.0259  138.6866   73.3031 H       624      M_A    0.0000
   4373 H         165.5640  140.2583   72.7501 H       624      M_A    0.0000
   4374 H         164.4996  138.1418   70.8084 H       624      M_A    0.0000
   4375 H         164.6833  139.8585   70.4798 H       624      M_A    0.0000
   4376 C         162.4763  140.4118   71.1774 C.3     625      M_A    0.0000
   4377 C         160.9615  140.2410   71.1187 C.3     625      M_A    0.0000
   4378 O         160.3106  141.4916   71.3384 O.3     625      M_A    0.0000
   4379 H         162.7245  141.3037   71.7652 H       625      M_A    0.0000
   4380 H         162.8786  140.5902   70.1738 H       625      M_A    0.0000
   4381 H         160.6290  139.5751   71.9251 H       625      M_A    0.0000
   4382 H         160.6355  139.7724   70.1788 H       625      M_A    0.0000
   4383 C         158.9312  141.3297   71.5860 C.3     626      M_A    0.0000
   4384 C         158.1084  142.4582   70.9723 C.3     626      M_A    0.0000
   4385 O         156.7811  142.0134   70.6961 O.3     626      M_A    0.0000
   4386 H         158.5988  140.3672   71.1788 H       626      M_A    0.0000
   4387 H         158.7576  141.2762   72.6668 H       626      M_A    0.0000
   4388 H         158.5408  142.7541   70.0079 H       626      M_A    0.0000
   4389 H         158.1125  143.3604   71.6009 H       626      M_A    0.0000
   4390 C         155.8639  143.0849   70.6636 C.3     627      M_A    0.0000
   4391 C         155.1861  143.2102   69.3026 C.3     627      M_A    0.0000
   4392 O         153.8911  143.7925   69.4430 O.3     627      M_A    0.0000
   4393 H         155.1051  142.9380   71.4415 H       627      M_A    0.0000
   4394 H         156.3811  144.0168   70.9186 H       627      M_A    0.0000
   4395 H         155.0303  142.2138   68.8697 H       627      M_A    0.0000
   4396 H         155.8056  143.7647   68.5830 H       627      M_A    0.0000
   4397 C         153.6815  144.8369   68.5181 C.3     628      M_A    0.0000
   4398 C         152.2287  144.9034   68.0573 C.3     628      M_A    0.0000
   4399 O         152.1050  145.7592   66.9223 O.3     628      M_A    0.0000
   4400 H         153.9674  145.7915   68.9760 H       628      M_A    0.0000
   4401 H         154.3479  144.7031   67.6584 H       628      M_A    0.0000
   4402 H         151.6066  145.3459   68.8457 H       628      M_A    0.0000
   4403 H         151.8123  143.9048   67.8611 H       628      M_A    0.0000
   4404 C         150.7552  145.9947   66.5865 C.3     629      M_A    0.0000
   4405 C         149.9988  144.6946   66.3322 C.3     629      M_A    0.0000
   4406 O         148.5957  144.8941   66.4982 O.3     629      M_A    0.0000
   4407 H         150.2701  146.5512   67.3974 H       629      M_A    0.0000
   4408 H         150.7057  146.6428   65.7041 H       629      M_A    0.0000
   4409 H         150.2922  143.9404   67.0736 H       629      M_A    0.0000
   4410 H         150.2348  144.2659   65.3475 H       629      M_A    0.0000
   4411 C         148.1251  145.9806   65.7312 C.3     630      M_A    0.0000
   4412 C         149.1371  146.4083   64.6728 C.3     630      M_A    0.0000
   4413 O         148.4725  147.0087   63.5621 O.3     630      M_A    0.0000
   4414 H         147.1807  145.7028   65.2477 H       630      M_A    0.0000
   4415 H         147.8891  146.8209   66.3939 H       630      M_A    0.0000
   4416 H         149.6605  145.5278   64.2789 H       630      M_A    0.0000
   4417 H         149.9134  147.0677   65.0872 H       630      M_A    0.0000
   4418 C         148.9166  148.3283   63.3346 C.3     631      M_A    0.0000
   4419 C         148.6691  148.7698   61.8955 C.3     631      M_A    0.0000
   4420 O         149.6551  149.7176   61.4889 O.3     631      M_A    0.0000
   4421 H         148.4020  149.0093   64.0232 H       631      M_A    0.0000
   4422 H         149.9827  148.4022   63.5776 H       631      M_A    0.0000
   4423 H         147.7013  149.2823   61.8231 H       631      M_A    0.0000
   4424 H         148.6172  147.9155   61.2052 H       631      M_A    0.0000
   4425 C         149.1092  150.7220   60.6621 C.3     632      M_A    0.0000
   4426 C         149.4935  152.1194   61.1381 C.3     632      M_A    0.0000
   4427 O         149.6597  152.9964   60.0250 O.3     632      M_A    0.0000
   4428 H         149.4566  150.5744   59.6324 H       632      M_A    0.0000
   4429 H         148.0188  150.6169   60.6307 H       632      M_A    0.0000
   4430 H         150.4632  152.0860   61.6510 H       632      M_A    0.0000
   4431 H         148.7737  152.5193   61.8670 H       632      M_A    0.0000
   4432 C         148.9726  152.5327   58.8834 C.3     633      M_A    0.0000
   4433 C         147.7835  153.4232   58.5365 C.3     633      M_A    0.0000
   4434 O         147.7693  153.7129   57.1394 O.3     633      M_A    0.0000
   4435 H         149.6644  152.4932   58.0334 H       633      M_A    0.0000
   4436 H         148.6404  151.5018   59.0504 H       633      M_A    0.0000
   4437 H         147.8772  154.3885   59.0500 H       633      M_A    0.0000
   4438 H         146.8309  152.9879   58.8713 H       633      M_A    0.0000
   4439 C         147.4007  155.0505   56.8838 C.3     634      M_A    0.0000
   4440 C         147.0656  155.2752   55.4126 C.3     634      M_A    0.0000
   4441 O         148.2045  155.7747   54.7132 O.3     634      M_A    0.0000
   4442 H         146.5354  155.3143   57.5037 H       634      M_A    0.0000
   4443 H         148.2109  155.7190   57.1962 H       634      M_A    0.0000
   4444 H         146.2865  156.0424   55.3198 H       634      M_A    0.0000
   4445 H         146.6625  154.3686   54.9384 H       634      M_A    0.0000
   4446 C         147.8813  156.1729   53.3989 C.3     635      M_A    0.0000
   4447 C         149.1297  156.4407   52.5641 C.3     635      M_A    0.0000
   4448 O         149.2706  157.8382   52.3134 O.3     635      M_A    0.0000
   4449 H         147.2778  155.3923   52.9202 H       635      M_A    0.0000
   4450 H         147.2472  157.0661   53.4331 H       635      M_A    0.0000
   4451 H         149.0329  155.9600   51.5823 H       635      M_A    0.0000
   4452 H         150.0333  156.0172   53.0261 H       635      M_A    0.0000
   4453 C         150.3027  158.1048   51.3892 C.3     636      M_A    0.0000
   4454 C         151.6387  157.5300   51.8496 C.3     636      M_A    0.0000
   4455 O         152.5228  157.3749   50.7404 O.3     636      M_A    0.0000
   4456 H         150.0357  157.6817   50.4133 H       636      M_A    0.0000
   4457 H         150.3862  159.1868   51.2364 H       636      M_A    0.0000
   4458 H         151.4896  156.5260   52.2669 H       636      M_A    0.0000
   4459 H         152.0925  158.1316   52.6504 H       636      M_A    0.0000
   4460 C         151.9200  157.7724   49.5284 C.3     637      M_A    0.0000
   4461 C         152.8762  157.6350   48.3476 C.3     637      M_A    0.0000
   4462 O         152.1650  157.2453   47.1737 O.3     637      M_A    0.0000
   4463 H         151.0247  157.1645   49.3507 H       637      M_A    0.0000
   4464 H         151.5698  158.8071   49.6163 H       637      M_A    0.0000
   4465 H         153.6030  156.8371   48.5463 H       637      M_A    0.0000
   4466 H         153.4622  158.5508   48.1829 H       637      M_A    0.0000
   4467 C         151.7618  158.3602   46.4091 C.3     638      M_A    0.0000
   4468 C         150.3820  158.1554   45.7915 C.3     638      M_A    0.0000
   4469 O         149.6223  159.3613   45.8589 O.3     638      M_A    0.0000
   4470 H         151.7524  159.2535   47.0451 H       638      M_A    0.0000
   4471 H         152.5041  158.5546   45.6266 H       638      M_A    0.0000
   4472 H         149.8226  157.4067   46.3667 H       638      M_A    0.0000
   4473 H         150.4435  157.7704   44.7633 H       638      M_A    0.0000
   4474 C         148.2343  159.1092   45.8508 C.3     639      M_A    0.0000
   4475 C         147.4669  160.1847   45.0882 C.3     639      M_A    0.0000
   4476 O         146.1223  159.7673   44.8565 O.3     639      M_A    0.0000
   4477 H         148.0451  158.1290   45.3968 H       639      M_A    0.0000
   4478 H         147.8693  159.0397   46.8818 H       639      M_A    0.0000
   4479 H         147.9174  160.3346   44.0987 H       639      M_A    0.0000
   4480 H         147.5085  161.1592   45.5958 H       639      M_A    0.0000
   4481 C         145.2659  160.8626   44.6172 C.3     640      M_A    0.0000
   4482 C         145.0883  161.7264   45.8620 C.3     640      M_A    0.0000
   4483 O         144.4396  162.9527   45.5287 O.3     640      M_A    0.0000
   4484 H         145.6729  161.4713   43.8008 H       640      M_A    0.0000
   4485 H         144.2944  160.4971   44.2656 H       640      M_A    0.0000
   4486 H         146.0696  161.9985   46.2711 H       640      M_A    0.0000
   4487 H         144.5588  161.1909   46.6633 H       640      M_A    0.0000
   4488 C         143.5246  162.7917   44.4671 C.3     641      M_A    0.0000
   4489 C         142.6317  164.0169   44.2970 C.3     641      M_A    0.0000
   4490 O         141.3385  163.6303   43.8344 O.3     641      M_A    0.0000
   4491 H         144.0751  162.6044   43.5373 H       641      M_A    0.0000
   4492 H         142.9151  161.8978   44.6422 H       641      M_A    0.0000
   4493 H         143.0486  164.6790   43.5274 H       641      M_A    0.0000
   4494 H         142.5723  164.6148   45.2179 H       641      M_A    0.0000
   4495 C         140.6315  164.7183   43.2806 C.3     642      M_A    0.0000
   4496 C         140.7964  165.9852   44.1142 C.3     642      M_A    0.0000
   4497 O         140.2015  167.0992   43.4501 O.3     642      M_A    0.0000
   4498 H         140.9858  164.9003   42.2588 H       642      M_A    0.0000
   4499 H         139.5710  164.4572   43.1902 H       642      M_A    0.0000
   4500 H         141.8618  166.2249   44.2231 H       642      M_A    0.0000
   4501 H         140.4031  165.8621   45.1337 H       642      M_A    0.0000
   4502 C         140.5445  168.3219   44.0647 C.3     643      M_A    0.0000
   4503 C         139.3091  169.1056   44.4969 C.3     643      M_A    0.0000
   4504 O         139.6772  170.4114   44.9388 O.3     643      M_A    0.0000
   4505 H         141.1804  168.1253   44.9362 H       643      M_A    0.0000
   4506 H         141.1527  168.9192   43.3760 H       643      M_A    0.0000
   4507 H         138.8352  168.6124   45.3552 H       643      M_A    0.0000
   4508 H         138.5472  169.1439   43.7050 H       643      M_A    0.0000
   4509 C         139.7569  171.3257   43.8673 C.3     644      M_A    0.0000
   4510 C         138.3776  171.8101   43.4313 C.3     644      M_A    0.0000
   4511 O         138.1170  173.1103   43.9581 O.3     644      M_A    0.0000
   4512 H         140.3718  172.1833   44.1656 H       644      M_A    0.0000
   4513 H         140.2798  170.8577   43.0255 H       644      M_A    0.0000
   4514 H         137.6027  171.1505   43.8424 H       644      M_A    0.0000
   4515 H         138.2571  171.7824   42.3387 H       644      M_A    0.0000
   4516 C         136.8251  173.2015   44.5176 C.3     645      M_A    0.0000
   4517 C         135.7401  173.1832   43.4454 C.3     645      M_A    0.0000
   4518 O         134.4607  172.9578   44.0355 O.3     645      M_A    0.0000
   4519 H         136.6703  172.3681   45.2134 H       645      M_A    0.0000
   4520 H         136.7508  174.1146   45.1190 H       645      M_A    0.0000
   4521 H         135.9117  172.3482   42.7543 H       645      M_A    0.0000
   4522 H         135.7503  174.0964   42.8329 H       645      M_A    0.0000
   4523 C         133.4374  173.6465   43.3507 C.3     646      M_A    0.0000
   4524 C         133.5453  173.4661   41.8397 C.3     646      M_A    0.0000
   4525 O         132.4009  172.7775   41.3376 O.3     646      M_A    0.0000
   4526 H         132.4613  173.2857   43.6966 H       646      M_A    0.0000
   4527 H         133.4754  174.7104   43.6108 H       646      M_A    0.0000
   4528 H         134.4125  172.8380   41.5993 H       646      M_A    0.0000
   4529 H         133.7048  174.4223   41.3206 H       646      M_A    0.0000
   4530 C         132.6919  172.0691   40.1527 C.3     647      M_A    0.0000
   4531 C         131.4234  171.6074   39.4419 C.3     647      M_A    0.0000
   4532 O         131.7360  171.0989   38.1459 O.3     647      M_A    0.0000
   4533 H         133.2792  172.7076   39.4819 H       647      M_A    0.0000
   4534 H         133.3307  171.2102   40.3879 H       647      M_A    0.0000
   4535 H         130.7520  172.4610   39.2839 H       647      M_A    0.0000
   4536 H         130.8581  170.8779   40.0396 H       647      M_A    0.0000
   4537 C         130.5974  171.0430   37.3147 C.3     648      M_A    0.0000
   4538 C         129.7723  169.7850   37.5667 C.3     648      M_A    0.0000
   4539 O         128.3950  170.0278   37.2838 O.3     648      M_A    0.0000
   4540 H         129.9776  171.9313   37.4863 H       648      M_A    0.0000
   4541 H         130.9085  171.0904   36.2649 H       648      M_A    0.0000
   4542 H         129.8247  169.5101   38.6279 H       648      M_A    0.0000
   4543 H         130.1564  168.9206   37.0059 H       648      M_A    0.0000
   4544 C         127.5462  169.2382   38.0877 C.3     649      M_A    0.0000
   4545 C         126.3517  168.7078   37.3008 C.3     649      M_A    0.0000
   4546 O         125.5250  167.8984   38.1359 O.3     649      M_A    0.0000
   4547 H         128.1161  168.3986   38.5036 H       649      M_A    0.0000
   4548 H         127.2051  169.8266   38.9471 H       649      M_A    0.0000
   4549 H         126.6988  168.0573   36.4880 H       649      M_A    0.0000
   4550 H         125.7798  169.5171   36.8242 H       649      M_A    0.0000
   4551 C         124.7255  168.6781   38.9980 C.3     650      M_A    0.0000
   4552 C         123.7104  169.5160   38.2269 C.3     650      M_A    0.0000
   4553 O         122.5996  169.8439   39.0603 O.3     650      M_A    0.0000
   4554 H         124.2020  168.0207   39.7026 H       650      M_A    0.0000
   4555 H         125.3676  169.3238   39.6078 H       650      M_A    0.0000
   4556 H         123.3054  168.9345   37.3889 H       650      M_A    0.0000
   4557 H         124.1669  170.4140   37.7859 H       650      M_A    0.0000
   4558 C         121.9557  171.0256   38.6370 C.3     651      M_A    0.0000
   4559 C         120.6002  170.7360   38.0001 C.3     651      M_A    0.0000
   4560 O         119.6904  171.8045   38.2579 O.3     651      M_A    0.0000
   4561 H         121.8246  171.6960   39.4950 H       651      M_A    0.0000
   4562 H         122.6013  171.5611   37.9316 H       651      M_A    0.0000
   4563 H         120.1583  169.8394   38.4532 H       651      M_A    0.0000
   4564 H         120.6865  170.5260   36.9241 H       651      M_A    0.0000
   4565 C         118.3482  171.3709   38.2269 C.3     652      M_A    0.0000
   4566 C         118.0223  170.6267   36.9357 C.3     652      M_A    0.0000
   4567 O         116.7757  169.9430   37.0561 O.3     652      M_A    0.0000
   4568 H         118.1565  170.7185   39.0873 H       652      M_A    0.0000
   4569 H         117.6826  172.2332   38.3477 H       652      M_A    0.0000
   4570 H         118.7797  169.8549   36.7479 H       652      M_A    0.0000
   4571 H         118.0382  171.2925   36.0607 H       652      M_A    0.0000
   4572 C         115.7531  170.7937   37.5261 C.3     653      M_A    0.0000
   4573 C         114.3695  170.2951   37.1206 C.3     653      M_A    0.0000
   4574 O         113.3867  170.7389   38.0549 O.3     653      M_A    0.0000
   4575 H         115.8135  170.8663   38.6186 H       653      M_A    0.0000
   4576 H         115.9184  171.8084   37.1465 H       653      M_A    0.0000
   4577 H         114.3454  169.1982   37.1461 H       653      M_A    0.0000
   4578 H         114.1122  170.5845   36.0914 H       653      M_A    0.0000
   4579 C         112.2409  171.2497   37.4096 C.3     654      M_A    0.0000
   4580 C         110.9728  170.9920   38.2175 C.3     654      M_A    0.0000
   4581 O         109.8513  171.6198   37.5976 O.3     654      M_A    0.0000
   4582 H         112.3636  172.3276   37.2493 H       654      M_A    0.0000
   4583 H         112.1540  170.8042   36.4121 H       654      M_A    0.0000
   4584 H         111.0662  171.4430   39.2136 H       654      M_A    0.0000
   4585 H         110.7990  169.9186   38.3810 H       654      M_A    0.0000
   4586 C         108.9399  172.1251   38.5485 C.3     655      M_A    0.0000
   4587 C         107.6214  171.3579   38.5339 C.3     655      M_A    0.0000
   4588 O         106.5189  172.2632   38.5070 O.3     655      M_A    0.0000
   4589 H         109.3882  172.0693   39.5478 H       655      M_A    0.0000
   4590 H         108.7633  173.1894   38.3560 H       655      M_A    0.0000
   4591 H         107.5182  170.7746   39.4578 H       655      M_A    0.0000
   4592 H         107.5742  170.6349   37.7068 H       655      M_A    0.0000
   4593 C         105.4249  171.7815   39.2564 C.3     656      M_A    0.0000
   4594 C         105.1157  170.3226   38.9349 C.3     656      M_A    0.0000
   4595 O         103.7769  170.1906   38.4594 O.3     656      M_A    0.0000
   4596 H         105.6427  171.8854   40.3262 H       656      M_A    0.0000
   4597 H         104.5465  172.4081   39.0650 H       656      M_A    0.0000
   4598 H         105.1791  169.7172   39.8480 H       656      M_A    0.0000
   4599 H         105.8419  169.8929   38.2298 H       656      M_A    0.0000
   4600 C         103.6541  170.5988   37.1145 C.3     657      M_A    0.0000
   4601 C         102.6504  171.7367   36.9566 C.3     657      M_A    0.0000
   4602 O         102.9275  172.4844   35.7733 O.3     657      M_A    0.0000
   4603 H         104.6345  170.9169   36.7398 H       657      M_A    0.0000
   4604 H         103.3588  169.7422   36.4980 H       657      M_A    0.0000
   4605 H         102.7471  172.4392   37.7942 H       657      M_A    0.0000
   4606 H         101.6118  171.3761   36.9759 H       657      M_A    0.0000
   4607 C         102.1420  173.6535   35.6944 C.3     658      M_A    0.0000
   4608 C         101.2929  173.6819   34.4273 C.3     658      M_A    0.0000
   4609 O         100.1827  174.5630   34.5916 O.3     658      M_A    0.0000
   4610 H         101.4920  173.7154   36.5755 H       658      M_A    0.0000
   4611 H         102.7924  174.5345   35.7367 H       658      M_A    0.0000
   4612 H         100.8707  172.6868   34.2381 H       658      M_A    0.0000
   4613 H         101.8873  173.9380   33.5383 H       658      M_A    0.0000
   4614 C          99.8865  175.2624   33.4027 C.3     659      M_A    0.0000
   4615 C          98.3879  175.2886   33.1184 C.3     659      M_A    0.0000
   4616 O          98.0442  176.4506   32.3651 O.3     659      M_A    0.0000
   4617 H         100.2653  176.2887   33.4802 H       659      M_A    0.0000
   4618 H         100.4249  174.8044   32.5653 H       659      M_A    0.0000
   4619 H          97.8299  175.3567   34.0610 H       659      M_A    0.0000
   4620 H          98.0458  174.3677   32.6244 H       659      M_A    0.0000
   4621 C          96.6881  176.8024   32.5311 C.3     660      M_A    0.0000
   4622 C          96.1151  177.4591   31.2791 C.3     660      M_A    0.0000
   4623 O          94.6970  177.3066   31.2414 O.3     660      M_A    0.0000
   4624 H          96.1068  175.9054   32.7762 H       660      M_A    0.0000
   4625 H          96.5871  177.4723   33.3926 H       660      M_A    0.0000
   4626 H          96.5025  176.9572   30.3832 H       660      M_A    0.0000
   4627 H          96.4132  178.5141   31.1935 H       660      M_A    0.0000
   4628 C          94.0877  178.2629   30.4020 C.3     661      M_A    0.0000
   4629 C          92.7319  177.7865   29.8900 C.3     661      M_A    0.0000
   4630 O          91.9199  178.9000   29.5206 O.3     661      M_A    0.0000
   4631 H          93.9646  179.2039   30.9517 H       661      M_A    0.0000
   4632 H          94.7539  178.4892   29.5618 H       661      M_A    0.0000
   4633 H          92.1926  177.2644   30.6907 H       661      M_A    0.0000
   4634 H          92.8326  177.0653   29.0660 H       661      M_A    0.0000
   4635 C          90.5443  178.5978   29.6037 C.3     662      M_A    0.0000
   4636 C          90.2183  177.2559   28.9556 C.3     662      M_A    0.0000
   4637 O          88.9538  176.7770   29.4113 O.3     662      M_A    0.0000
   4638 H          90.2379  178.5831   30.6566 H       662      M_A    0.0000
   4639 H          89.9648  179.3994   29.1319 H       662      M_A    0.0000
   4640 H          90.9591  176.5049   29.2582 H       662      M_A    0.0000
   4641 H          90.2624  177.3065   27.8580 H       662      M_A    0.0000
   4642 C          88.3113  175.9822   28.4388 C.3     663      M_A    0.0000
   4643 C          88.1643  174.5344   28.8964 C.3     663      M_A    0.0000
   4644 O          86.9101  174.0029   28.4718 O.3     663      M_A    0.0000
   4645 H          87.3221  176.4025   28.2209 H       663      M_A    0.0000
   4646 H          88.8730  176.0293   27.4989 H       663      M_A    0.0000
   4647 H          88.1632  174.4873   29.9928 H       663      M_A    0.0000
   4648 H          89.0049  173.9090   28.5626 H       663      M_A    0.0000
   4649 C          86.7433  172.6618   28.8770 C.3     664      M_A    0.0000
   4650 C          85.4220  172.0804   28.3837 C.3     664      M_A    0.0000
   4651 O          85.3060  170.7113   28.7683 O.3     664      M_A    0.0000
   4652 H          87.5767  172.0600   28.4951 H       664      M_A    0.0000
   4653 H          86.8022  172.6001   29.9696 H       664      M_A    0.0000
   4654 H          85.3935  172.0955   27.2867 H       664      M_A    0.0000
   4655 H          84.5592  172.6724   28.7219 H       664      M_A    0.0000
   4656 C          83.9638  170.3411   28.9954 C.3     665      M_A    0.0000
   4657 C          83.0022  171.1175   28.1010 C.3     665      M_A    0.0000
   4658 O          81.6663  170.6502   28.2823 O.3     665      M_A    0.0000
   4659 H          83.8475  169.2655   28.8159 H       665      M_A    0.0000
   4660 H          83.7143  170.4997   30.0507 H       665      M_A    0.0000
   4661 H          83.2491  170.9424   27.0462 H       665      M_A    0.0000
   4662 H          83.0781  172.2031   28.2585 H       665      M_A    0.0000
   4663 C          81.5049  169.3274   27.8190 C.3     666      M_A    0.0000
   4664 C          81.5709  169.2476   26.2970 C.3     666      M_A    0.0000
   4665 O          80.2820  168.9588   25.7572 O.3     666      M_A    0.0000
   4666 H          82.2839  168.6911   28.2559 H       666      M_A    0.0000
   4667 H          80.5507  168.9274   28.1802 H       666      M_A    0.0000
   4668 H          82.2241  168.4193   25.9942 H       666      M_A    0.0000
   4669 H          82.0025  170.1571   25.8547 H       666      M_A    0.0000
   4670 C          79.2914  169.8215   26.2717 C.3     667      M_A    0.0000
   4671 C          79.8655  171.1840   26.6476 C.3     667      M_A    0.0000
   4672 O          78.8506  172.1852   26.5893 O.3     667      M_A    0.0000
   4673 H          78.4969  169.9487   25.5265 H       667      M_A    0.0000
   4674 H          78.8167  169.3550   27.1423 H       667      M_A    0.0000
   4675 H          80.6321  171.4801   25.9202 H       667      M_A    0.0000
   4676 H          80.3628  171.1656   27.6282 H       667      M_A    0.0000
   4677 C          78.9354  173.0833   27.6740 C.3     668      M_A    0.0000
   4678 C          79.1765  174.5154   27.2070 C.3     668      M_A    0.0000
   4679 O          78.2385  175.4020   27.8153 O.3     668      M_A    0.0000
   4680 H          78.0086  173.0368   28.2583 H       668      M_A    0.0000
   4681 H          79.7355  172.7638   28.3514 H       668      M_A    0.0000
   4682 H          79.0116  174.5882   26.1245 H       668      M_A    0.0000
   4683 H          80.2132  174.8373   27.3825 H       668      M_A    0.0000
   4684 C          78.5729  176.7544   27.5925 C.3     669      M_A    0.0000
   4685 C          77.4234  177.5244   26.9499 C.3     669      M_A    0.0000
   4686 O          77.8755  178.7934   26.4797 O.3     669      M_A    0.0000
   4687 H          78.8443  177.2239   28.5457 H       669      M_A    0.0000
   4688 H          79.4680  176.8106   26.9627 H       669      M_A    0.0000
   4689 H          76.6481  177.7319   27.6985 H       669      M_A    0.0000
   4690 H          76.9343  176.9460   26.1528 H       669      M_A    0.0000
   4691 C          76.9763  179.3613   25.5528 C.3     670      M_A    0.0000
   4692 C          76.9280  178.5682   24.2506 C.3     670      M_A    0.0000
   4693 O          75.7806  178.9357   23.4861 O.3     670      M_A    0.0000
   4694 H          75.9743  179.4032   25.9967 H       670      M_A    0.0000
   4695 H          77.2626  180.4005   25.3554 H       670      M_A    0.0000
   4696 H          76.8226  177.4978   24.4686 H       670      M_A    0.0000
   4697 H          77.8551  178.6738   23.6689 H       670      M_A    0.0000
   4698 C          76.0193  178.8362   22.0992 C.3     671      M_A    0.0000
   4699 C          74.7196  178.7715   21.3032 C.3     671      M_A    0.0000
   4700 O          74.9304  179.2274   19.9677 O.3     671      M_A    0.0000
   4701 H          76.6116  179.6982   21.7691 H       671      M_A    0.0000
   4702 H          76.6344  177.9521   21.8966 H       671      M_A    0.0000
   4703 H          73.9765  179.4472   21.7455 H       671      M_A    0.0000
   4704 H          74.2728  177.7669   21.3242 H       671      M_A    0.0000
   4705 C          73.8030  179.9070   19.4603 C.3     672      M_A    0.0000
   4706 C          73.3842  179.3703   18.0950 C.3     672      M_A    0.0000
   4707 O          71.9661  179.4307   17.9499 O.3     672      M_A    0.0000
   4708 H          72.9701  179.8083   20.1668 H       672      M_A    0.0000
   4709 H          74.0201  180.9794   19.3976 H       672      M_A    0.0000
   4710 H          73.6575  178.3108   18.0102 H       672      M_A    0.0000
   4711 H          73.8996  179.8876   17.2729 H       672      M_A    0.0000
   4712 C          71.4758  178.3849   17.1398 C.3     673      M_A    0.0000
   4713 C          70.4762  178.8906   16.1042 C.3     673      M_A    0.0000
   4714 O          69.9645  177.8040   15.3340 O.3     673      M_A    0.0000
   4715 H          72.3148  177.8930   16.6332 H       673      M_A    0.0000
   4716 H          71.0138  177.6184   17.7723 H       673      M_A    0.0000
   4717 H          70.9794  179.5605   15.3952 H       673      M_A    0.0000
   4718 H          69.6689  179.4793   16.5635 H       673      M_A    0.0000
   4719 C          69.1859  178.2518   14.2461 C.3     674      M_A    0.0000
   4720 C          67.7546  177.7290   14.3198 C.3     674      M_A    0.0000
   4721 O          66.8507  178.7926   14.6161 O.3     674      M_A    0.0000
   4722 H          69.1778  179.3484   14.2312 H       674      M_A    0.0000
   4723 H          69.6570  177.9407   13.3067 H       674      M_A    0.0000
   4724 H          67.6620  177.0083   15.1422 H       674      M_A    0.0000
   4725 H          67.4644  177.1914   13.4055 H       674      M_A    0.0000
   4726 C          65.8106  178.3749   15.4728 C.3     675      M_A    0.0000
   4727 C          65.1674  177.0774   14.9934 C.3     675      M_A    0.0000
   4728 O          64.0648  176.7296   15.8296 O.3     675      M_A    0.0000
   4729 H          66.2068  178.2379   16.4862 H       675      M_A    0.0000
   4730 H          65.0580  179.1680   15.5477 H       675      M_A    0.0000
   4731 H          65.8865  176.2522   15.0730 H       675      M_A    0.0000
   4732 H          64.8745  177.1290   13.9348 H       675      M_A    0.0000
   4733 C          63.1666  177.8056   15.9896 C.3     676      M_A    0.0000
   4734 C          61.7939  177.4904   15.4033 C.3     676      M_A    0.0000
   4735 O          60.7866  178.2688   16.0478 O.3     676      M_A    0.0000
   4736 H          63.0670  178.0412   17.0560 H       676      M_A    0.0000
   4737 H          63.5842  178.7034   15.5199 H       676      M_A    0.0000
   4738 H          61.5391  176.4398   15.5925 H       676      M_A    0.0000
   4739 H          61.7720  177.6204   14.3116 H       676      M_A    0.0000
   4740 C          60.8412  179.6241   15.6598 C.3     677      M_A    0.0000
   4741 C          59.4879  180.3120   15.8099 C.3     677      M_A    0.0000
   4742 O          59.6633  181.6988   16.0960 O.3     677      M_A    0.0000
   4743 H          61.5901  180.1466   16.2671 H       677      M_A    0.0000
   4744 H          61.1910  179.6939   14.6235 H       677      M_A    0.0000
   4745 H          58.9457  179.8875   16.6645 H       677      M_A    0.0000
   4746 H          58.8463  180.1561   14.9305 H       677      M_A    0.0000
   4747 C          58.4436  182.3251   16.4283 C.3     678      M_A    0.0000
   4748 C          58.3267  183.7093   15.7977 C.3     678      M_A    0.0000
   4749 O          56.9611  184.1197   15.7473 O.3     678      M_A    0.0000
   4750 H          57.6091  181.6964   16.0955 H       678      M_A    0.0000
   4751 H          58.3533  182.3944   17.5183 H       678      M_A    0.0000
   4752 H          58.6769  183.6771   14.7581 H       678      M_A    0.0000
   4753 H          58.9555  184.4509   16.3113 H       678      M_A    0.0000
   4754 C          56.5552  184.7433   16.9460 C.3     679      M_A    0.0000
   4755 C          55.7594  186.0176   16.6811 C.3     679      M_A    0.0000
   4756 O          55.0047  186.3824   17.8357 O.3     679      M_A    0.0000
   4757 H          55.9472  184.0439   17.5324 H       679      M_A    0.0000
   4758 H          57.4360  184.9650   17.5592 H       679      M_A    0.0000
   4759 H          55.0305  185.8432   15.8794 H       679      M_A    0.0000
   4760 H          56.4022  186.8414   16.3384 H       679      M_A    0.0000
   4761 C          54.8541  187.7809   17.9448 C.3     680      M_A    0.0000
   4762 C          54.1861  188.3775   16.7099 C.3     680      M_A    0.0000
   4763 O          53.4927  189.5774   17.0496 O.3     680      M_A    0.0000
   4764 H          54.2586  188.0145   18.8356 H       680      M_A    0.0000
   4765 H          55.8346  188.2426   18.1078 H       680      M_A    0.0000
   4766 H          53.4291  187.6837   16.3227 H       680      M_A    0.0000
   4767 H          54.9023  188.5395   15.8914 H       680      M_A    0.0000
   4768 C          53.1635  190.3357   15.9064 C.3     681      M_A    0.0000
   4769 C          53.1253  191.8305   16.2090 C.3     681      M_A    0.0000
   4770 O          53.3083  192.5856   15.0123 O.3     681      M_A    0.0000
   4771 H          53.8966  190.1381   15.1151 H       681      M_A    0.0000
   4772 H          52.1968  190.0022   15.5124 H       681      M_A    0.0000
   4773 H          53.9573  192.0988   16.8725 H       681      M_A    0.0000
   4774 H          52.2052  192.1210   16.7365 H       681      M_A    0.0000
   4775 C          53.4688  193.9617   15.2785 C.3     682      M_A    0.0000
   4776 C          52.5448  194.8175   14.4177 C.3     682      M_A    0.0000
   4777 O          52.5055  196.1566   14.9088 O.3     682      M_A    0.0000
   4778 H          53.2671  194.1531   16.3393 H       682      M_A    0.0000
   4779 H          54.5143  194.2463   15.1140 H       682      M_A    0.0000
   4780 H          51.5174  194.4367   14.4798 H       682      M_A    0.0000
   4781 H          52.8221  194.7823   13.3542 H       682      M_A    0.0000
   4782 C          51.5195  196.9267   14.2568 C.3     683      M_A    0.0000
   4783 C          51.1431  196.3364   12.9015 C.3     683      M_A    0.0000
   4784 O          50.1431  197.1352   12.2709 O.3     683      M_A    0.0000
   4785 H          50.6279  196.9898   14.8923 H       683      M_A    0.0000
   4786 H          51.8785  197.9553   14.1377 H       683      M_A    0.0000
   4787 H          50.7015  195.3409   13.0371 H       683      M_A    0.0000
   4788 H          52.0210  196.1978   12.2539 H       683      M_A    0.0000
   4789 C          50.6619  198.3669   11.8192 C.3     684      M_A    0.0000
   4790 C          49.6580  199.1221   10.9538 C.3     684      M_A    0.0000
   4791 O          49.5262  200.4694   11.4046 O.3     684      M_A    0.0000
   4792 H          50.9414  198.9826   12.6826 H       684      M_A    0.0000
   4793 H          51.5887  198.1907   11.2615 H       684      M_A    0.0000
   4794 H          48.6642  198.6666   11.0504 H       684      M_A    0.0000
   4795 H          49.9158  199.0740    9.8859 H       684      M_A    0.0000
   4796 C          48.1768  200.8788   11.4498 C.3     685      M_A    0.0000
   4797 C          47.5714  200.9917   10.0541 C.3     685      M_A    0.0000
   4798 O          46.1466  201.0091   10.1294 O.3     685      M_A    0.0000
   4799 H          47.5989  200.1624   12.0459 H       685      M_A    0.0000
   4800 H          48.1032  201.8376   11.9755 H       685      M_A    0.0000
   4801 H          47.8374  200.1089    9.4589 H       685      M_A    0.0000
   4802 H          47.9603  201.8615    9.5051 H       685      M_A    0.0000
   4803 C          45.5830  201.9206    9.2119 C.3     686      M_A    0.0000
   4804 C          44.1506  201.5443    8.8459 C.3     686      M_A    0.0000
   4805 O          43.3825  202.7153    8.5727 O.3     686      M_A    0.0000
   4806 H          45.6009  202.9288    9.6430 H       686      M_A    0.0000
   4807 H          46.2066  201.9661    8.3119 H       686      M_A    0.0000
   4808 H          43.6653  201.0493    9.6967 H       686      M_A    0.0000
   4809 H          44.1126  200.8291    8.0114 H       686      M_A    0.0000
   4810 C          42.0116  202.4202    8.4178 C.3     687      M_A    0.0000
   4811 C          41.3624  203.2884    7.3445 C.3     687      M_A    0.0000
   4812 O          40.1822  202.6618    6.8439 O.3     687      M_A    0.0000
   4813 H          41.8944  201.3615    8.1568 H       687      M_A    0.0000
   4814 H          41.4984  202.5531    9.3770 H       687      M_A    0.0000
   4815 H          42.0411  203.3946    6.4887 H       687      M_A    0.0000
   4816 H          41.1602  204.3074    7.7049 H       687      M_A    0.0000
   4817 C          39.4596  202.0100    7.8653 C.3     688      M_A    0.0000
   4818 C          37.9573  202.2392    7.7321 C.3     688      M_A    0.0000
   4819 O          37.3040  201.9944    8.9767 O.3     688      M_A    0.0000
   4820 H          39.6731  200.9348    7.8328 H       688      M_A    0.0000
   4821 H          39.8128  202.3584    8.8424 H       688      M_A    0.0000
   4822 H          37.5324  201.5246    7.0156 H       688      M_A    0.0000
   4823 H          37.7260  203.2407    7.3414 H       688      M_A    0.0000
   4824 C          38.1521  202.2505   10.0747 C.3     689      M_A    0.0000
   4825 C          39.0496  203.4592    9.8283 C.3     689      M_A    0.0000
   4826 O          39.1261  204.2697   11.0000 O.3     689      M_A    0.0000
   4827 H          37.5447  202.4188   10.9722 H       689      M_A    0.0000
   4828 H          38.7587  201.3619   10.2831 H       689      M_A    0.0000
   4829 H          38.6164  204.0926    9.0437 H       689      M_A    0.0000
   4830 H          40.0473  203.1659    9.4708 H       689      M_A    0.0000
   4831 C          40.1974  205.1855   10.9365 C.3     690      M_A    0.0000
   4832 C          40.1291  206.2169   12.0585 C.3     690      M_A    0.0000
   4833 O          41.4424  206.6110   12.4532 O.3     690      M_A    0.0000
   4834 H          41.1468  204.6397   10.9945 H       690      M_A    0.0000
   4835 H          40.1949  205.6839    9.9605 H       690      M_A    0.0000
   4836 H          39.6612  205.7728   12.9463 H       690      M_A    0.0000
   4837 H          39.5094  207.0832   11.7851 H       690      M_A    0.0000
   4838 C          41.9377  207.6630   11.6543 C.3     691      M_A    0.0000
   4839 C          43.3420  208.0834   12.0769 C.3     691      M_A    0.0000
   4840 O          44.3133  207.5487   11.1789 O.3     691      M_A    0.0000
   4841 H          41.9472  207.3488   10.6036 H       691      M_A    0.0000
   4842 H          41.2525  208.5166   11.7077 H       691      M_A    0.0000
   4843 H          43.5749  207.6675   13.0655 H       691      M_A    0.0000
   4844 H          43.4343  209.1749   12.1730 H       691      M_A    0.0000
   4845 C          45.5221  208.2750   11.2188 C.3     692      M_A    0.0000
   4846 C          45.8541  208.7464   12.6311 C.3     692      M_A    0.0000
   4847 O          46.8193  207.8830   13.2302 O.3     692      M_A    0.0000
   4848 H          46.3367  207.6471   10.8383 H       692      M_A    0.0000
   4849 H          45.4571  209.1307   10.5372 H       692      M_A    0.0000
   4850 H          44.9586  208.6926   13.2633 H       692      M_A    0.0000
   4851 H          46.1807  209.7962   12.6493 H       692      M_A    0.0000
   4852 C          47.6951  207.3292   12.2728 C.3     693      M_A    0.0000
   4853 C          48.9388  206.7296   12.9216 C.3     693      M_A    0.0000
   4854 O          49.9627  206.5328   11.9476 O.3     693      M_A    0.0000
   4855 H          47.1677  206.5558   11.7015 H       693      M_A    0.0000
   4856 H          47.9782  208.1001   11.5471 H       693      M_A    0.0000
   4857 H          48.7064  205.7373   13.3287 H       693      M_A    0.0000
   4858 H          49.2941  207.3341   13.7687 H       693      M_A    0.0000
   4859 C          51.1930  206.1814   12.5420 C.3     694      M_A    0.0000
   4860 C          51.7637  207.3210   13.3804 C.3     694      M_A    0.0000
   4861 O          52.7731  206.8328   14.2628 O.3     694      M_A    0.0000
   4862 H          51.0528  205.2945   13.1716 H       694      M_A    0.0000
   4863 H          51.9053  205.8885   11.7624 H       694      M_A    0.0000
   4864 H          50.9777  207.7464   14.0172 H       694      M_A    0.0000
   4865 H          52.1342  208.1468   12.7559 H       694      M_A    0.0000
   4866 C          54.0693  207.0490   13.7495 C.3     695      M_A    0.0000
   4867 C          55.0212  207.5787   14.8175 C.3     695      M_A    0.0000
   4868 O          56.3764  207.4145   14.4023 O.3     695      M_A    0.0000
   4869 H          54.4601  206.1097   13.3401 H       695      M_A    0.0000
   4870 H          54.0168  207.7470   12.9062 H       695      M_A    0.0000
   4871 H          54.9092  206.9954   15.7404 H       695      M_A    0.0000
   4872 H          54.8013  208.6225   15.0848 H       695      M_A    0.0000
   4873 C          56.7153  208.2957   13.3540 C.3     696      M_A    0.0000
   4874 C          58.0284  209.0228   13.6264 C.3     696      M_A    0.0000
   4875 O          59.0869  208.4403   12.8674 O.3     696      M_A    0.0000
   4876 H          56.7930  207.7327   12.4161 H       696      M_A    0.0000
   4877 H          55.9039  209.0174   13.2063 H       696      M_A    0.0000
   4878 H          58.3071  208.9081   14.6817 H       696      M_A    0.0000
   4879 H          57.9459  210.1044   13.4459 H       696      M_A    0.0000
   4880 C          60.1416  207.9952   13.6919 C.3     697      M_A    0.0000
   4881 C          60.7858  209.1455   14.4593 C.3     697      M_A    0.0000
   4882 O          61.6938  208.6438   15.4389 O.3     697      M_A    0.0000
   4883 H          59.7607  207.2479   14.3984 H       697      M_A    0.0000
   4884 H          60.8903  207.4786   13.0807 H       697      M_A    0.0000
   4885 H          60.0178  209.7045   15.0090 H       697      M_A    0.0000
   4886 H          61.2709  209.8687   13.7878 H       697      M_A    0.0000
   4887 C          63.0123  208.5672   14.9431 C.3     698      M_A    0.0000
   4888 C          64.0460  208.7354   16.0524 C.3     698      M_A    0.0000
   4889 O          65.3659  208.6003   15.5276 O.3     698      M_A    0.0000
   4890 H          63.1587  207.6008   14.4459 H       698      M_A    0.0000
   4891 H          63.1567  209.3297   14.1693 H       698      M_A    0.0000
   4892 H          63.9278  207.9382   16.7973 H       698      M_A    0.0000
   4893 H          63.9189  209.6838   16.5942 H       698      M_A    0.0000
   4894 C          65.6201  207.2882   15.0758 C.3     699      M_A    0.0000
   4895 C          67.1130  206.9752   15.0536 C.3     699      M_A    0.0000
   4896 O          67.6069  206.9989   13.7152 O.3     699      M_A    0.0000
   4897 H          65.1027  206.5727   15.7262 H       699      M_A    0.0000
   4898 H          65.1883  207.1554   14.0773 H       699      M_A    0.0000
   4899 H          67.2872  205.9584   15.4280 H       699      M_A    0.0000
   4900 H          67.6849  207.6468   15.7101 H       699      M_A    0.0000
   4901 C          68.2883  208.2003   13.4277 C.3     700      M_A    0.0000
   4902 C          67.5358  209.4189   13.9530 C.3     700      M_A    0.0000
   4903 O          68.4520  210.4467   14.3271 O.3     700      M_A    0.0000
   4904 H          69.2903  208.1656   13.8721 H       700      M_A    0.0000
   4905 H          68.4408  208.2842   12.3457 H       700      M_A    0.0000
   4906 H          66.9831  209.1530   14.8631 H       700      M_A    0.0000
   4907 H          66.7876  209.7829   13.2341 H       700      M_A    0.0000
   4908 C          68.8699  210.3156   15.6682 C.3     701      M_A    0.0000
   4909 C          70.3812  210.4682   15.8089 C.3     701      M_A    0.0000
   4910 O          70.7447  210.5783   17.1842 O.3     701      M_A    0.0000
   4911 H          68.3641  211.0702   16.2825 H       701      M_A    0.0000
   4912 H          68.5474  209.3435   16.0582 H       701      M_A    0.0000
   4913 H          70.7091  211.3988   15.3284 H       701      M_A    0.0000
   4914 H          70.9262  209.6550   15.3081 H       701      M_A    0.0000
   4915 C          71.7496  209.6535   17.5379 C.3     702      M_A    0.0000
   4916 C          73.1391  210.2817   17.4950 C.3     702      M_A    0.0000
   4917 O          74.0239  209.5941   18.3783 O.3     702      M_A    0.0000
   4918 H          71.5504  209.2669   18.5447 H       702      M_A    0.0000
   4919 H          71.7022  208.7879   16.8674 H       702      M_A    0.0000
   4920 H          73.0917  211.3183   17.8522 H       702      M_A    0.0000
   4921 H          73.5398  210.3270   16.4719 H       702      M_A    0.0000
   4922 C          75.2796  209.3535   17.7820 C.3     703      M_A    0.0000
   4923 C          76.3149  208.8963   18.8049 C.3     703      M_A    0.0000
   4924 O          77.4660  208.3691   18.1468 O.3     703      M_A    0.0000
   4925 H          75.1715  208.5916   17.0007 H       703      M_A    0.0000
   4926 H          75.6225  210.2614   17.2729 H       703      M_A    0.0000
   4927 H          75.9053  208.0782   19.4111 H       703      M_A    0.0000
   4928 H          76.5806  209.6978   19.5093 H       703      M_A    0.0000
   4929 C          78.6624  208.7769   18.7735 C.3     704      M_A    0.0000
   4930 C          79.8787  208.5359   17.8849 C.3     704      M_A    0.0000
   4931 O          80.9283  209.4421   18.2210 O.3     704      M_A    0.0000
   4932 H          78.5959  209.8417   19.0270 H       704      M_A    0.0000
   4933 H          78.7755  208.2464   19.7258 H       704      M_A    0.0000
   4934 H          79.6219  208.7374   16.8371 H       704      M_A    0.0000
   4935 H          80.2166  207.4901   17.9230 H       704      M_A    0.0000
   4936 C          81.8933  208.8419   19.0571 C.3     705      M_A    0.0000
   4937 C          83.1625  209.6827   19.1528 C.3     705      M_A    0.0000
   4938 O          83.9328  209.2939   20.2892 O.3     705      M_A    0.0000
   4939 H          81.4690  208.6989   20.0582 H       705      M_A    0.0000
   4940 H          82.1282  207.8390   18.6828 H       705      M_A    0.0000
   4941 H          82.9012  210.7378   19.3046 H       705      M_A    0.0000
   4942 H          83.7546  209.6426   18.2271 H       705      M_A    0.0000
   4943 C          85.2273  209.8542   20.2633 C.3     706      M_A    0.0000
   4944 C          86.2913  208.8434   20.6796 C.3     706      M_A    0.0000
   4945 O          87.5505  209.1779   20.0980 O.3     706      M_A    0.0000
   4946 H          85.4440  210.2233   19.2536 H       706      M_A    0.0000
   4947 H          85.2588  210.7320   20.9187 H       706      M_A    0.0000
   4948 H          86.0307  207.8480   20.2979 H       706      M_A    0.0000
   4949 H          86.3615  208.7450   21.7726 H       706      M_A    0.0000
   4950 C          88.6098  208.4551   20.6862 C.3     707      M_A    0.0000
   4951 C          88.1002  207.3532   21.6100 C.3     707      M_A    0.0000
   4952 O          89.1208  206.3822   21.8369 O.3     707      M_A    0.0000
   4953 H          89.2331  208.0166   19.8976 H       707      M_A    0.0000
   4954 H          89.2604  209.1436   21.2373 H       707      M_A    0.0000
   4955 H          87.2686  206.8198   21.1321 H       707      M_A    0.0000
   4956 H          87.7053  207.7563   22.5538 H       707      M_A    0.0000
   4957 C          90.2603  206.9497   22.4450 C.3     708      M_A    0.0000
   4958 C          90.0719  207.1271   23.9484 C.3     708      M_A    0.0000
   4959 O          91.3196  206.9877   24.6264 O.3     708      M_A    0.0000
   4960 H          91.1307  206.3102   22.2551 H       708      M_A    0.0000
   4961 H          90.4849  207.9131   21.9731 H       708      M_A    0.0000
   4962 H          89.4193  206.3359   24.3391 H       708      M_A    0.0000
   4963 H          89.5804  208.0799   24.1928 H       708      M_A    0.0000
   4964 C          91.1558  206.9560   26.0273 C.3     709      M_A    0.0000
   4965 C          90.4291  208.1948   26.5415 C.3     709      M_A    0.0000
   4966 O          90.3199  208.1535   27.9636 O.3     709      M_A    0.0000
   4967 H          90.5950  206.0562   26.3078 H       709      M_A    0.0000
   4968 H          92.1362  206.8627   26.5080 H       709      M_A    0.0000
   4969 H          89.4023  208.2133   26.1544 H       709      M_A    0.0000
   4970 H          90.9045  209.1245   26.1970 H       709      M_A    0.0000
   4971 C          90.9902  207.0388   28.5100 C.3     710      M_A    0.0000
   4972 C          92.3472  206.8137   27.8505 C.3     710      M_A    0.0000
   4973 O          93.2720  206.2658   28.7888 O.3     710      M_A    0.0000
   4974 H          91.1241  207.1874   29.5883 H       710      M_A    0.0000
   4975 H          90.3625  206.1468   28.4039 H       710      M_A    0.0000
   4976 H          92.7693  207.7737   27.5269 H       710      M_A    0.0000
   4977 H          92.2684  206.1922   26.9468 H       710      M_A    0.0000
   4978 C          94.1756  205.3725   28.1757 C.3     711      M_A    0.0000
   4979 C          95.5943  205.9325   28.1456 C.3     711      M_A    0.0000
   4980 O          96.5409  204.9066   28.4412 O.3     711      M_A    0.0000
   4981 H          94.1670  204.4182   28.7159 H       711      M_A    0.0000
   4982 H          93.8337  205.1469   27.1592 H       711      M_A    0.0000
   4983 H          95.7120  206.6942   28.9269 H       711      M_A    0.0000
   4984 H          95.8204  206.4321   27.1925 H       711      M_A    0.0000
   4985 C          97.8375  205.2449   27.9999 C.3     712      M_A    0.0000
   4986 C          98.8950  204.9320   29.0539 C.3     712      M_A    0.0000
   4987 O         100.1699  204.7467   28.4406 O.3     712      M_A    0.0000
   4988 H          98.0626  204.6965   27.0773 H       712      M_A    0.0000
   4989 H          97.8675  206.3077   27.7341 H       712      M_A    0.0000
   4990 H          98.6543  203.9860   29.5554 H       712      M_A    0.0000
   4991 H          98.9305  205.6977   29.8424 H       712      M_A    0.0000
   4992 C         100.2006  203.5917   27.6310 C.3     713      M_A    0.0000
   4993 C         101.5822  202.9450   27.6177 C.3     713      M_A    0.0000
   4994 O         102.2519  203.2263   26.3896 O.3     713      M_A    0.0000
   4995 H          99.4594  202.8710   27.9969 H       713      M_A    0.0000
   4996 H          99.8918  203.8512   26.6120 H       713      M_A    0.0000
   4997 H         101.4843  201.8532   27.6718 H       713      M_A    0.0000
   4998 H         102.1854  203.2431   28.4875 H       713      M_A    0.0000
   4999 C         103.2245  204.2370   26.5410 C.3     714      M_A    0.0000
   5000 C         103.7139  204.3420   27.9820 C.3     714      M_A    0.0000
   5001 O         105.0350  204.8795   28.0213 O.3     714      M_A    0.0000
   5002 H         104.0725  204.0283   25.8776 H       714      M_A    0.0000
   5003 H         102.8103  205.1957   26.2087 H       714      M_A    0.0000
   5004 H         103.7751  203.3418   28.4297 H       714      M_A    0.0000
   5005 H         103.0212  204.9189   28.6117 H       714      M_A    0.0000
   5006 C         105.3870  205.3149   29.3162 C.3     715      M_A    0.0000
   5007 C         106.8977  205.3016   29.5280 C.3     715      M_A    0.0000
   5008 O         107.2049  205.1668   30.9148 O.3     715      M_A    0.0000
   5009 H         105.0008  206.3287   29.4768 H       715      M_A    0.0000
   5010 H         104.8924  204.6819   30.0618 H       715      M_A    0.0000
   5011 H         107.3281  206.2594   29.2091 H       715      M_A    0.0000
   5012 H         107.3918  204.5263   28.9247 H       715      M_A    0.0000
   5013 C         108.3085  204.3142   31.1282 C.3     716      M_A    0.0000
   5014 C         109.5000  204.7001   30.2572 C.3     716      M_A    0.0000
   5015 O         110.6738  204.0111   30.6856 O.3     716      M_A    0.0000
   5016 H         108.5973  204.3504   32.1855 H       716      M_A    0.0000
   5017 H         108.0129  203.2774   30.9314 H       716      M_A    0.0000
   5018 H         109.7135  205.7708   30.3691 H       716      M_A    0.0000
   5019 H         109.2997  204.5365   29.1884 H       716      M_A    0.0000
   5020 C         110.3877  202.6936   31.1010 C.3     717      M_A    0.0000
   5021 C         111.4505  201.7065   30.6284 C.3     717      M_A    0.0000
   5022 O         111.6958  200.7212   31.6309 O.3     717      M_A    0.0000
   5023 H         110.3171  202.6641   32.1950 H       717      M_A    0.0000
   5024 H         109.4007  202.3985   30.7269 H       717      M_A    0.0000
   5025 H         112.4025  202.2294   30.4712 H       717      M_A    0.0000
   5026 H         111.1882  201.2486   29.6637 H       717      M_A    0.0000
   5027 C         112.8029  199.9082   31.3089 C.3     718      M_A    0.0000
   5028 C         112.9802  198.7695   32.3085 C.3     718      M_A    0.0000
   5029 O         113.8426  197.7668   31.7732 O.3     718      M_A    0.0000
   5030 H         112.6715  199.4970   30.3007 H       718      M_A    0.0000
   5031 H         113.7088  200.5236   31.2680 H       718      M_A    0.0000
   5032 H         112.0154  198.2797   32.4919 H       718      M_A    0.0000
   5033 H         113.3328  199.1299   33.2857 H       718      M_A    0.0000
   5034 C         114.9444  197.5157   32.6179 C.3     719      M_A    0.0000
   5035 C         116.2079  197.2003   31.8233 C.3     719      M_A    0.0000
   5036 O         117.3586  197.7120   32.4941 O.3     719      M_A    0.0000
   5037 H         115.1192  198.3893   33.2574 H       719      M_A    0.0000
   5038 H         114.7044  196.6887   33.2956 H       719      M_A    0.0000
   5039 H         116.1713  197.7026   30.8482 H       719      M_A    0.0000
   5040 H         116.3046  196.1255   31.6122 H       719      M_A    0.0000
   5041 C         117.7131  196.9210   33.6072 C.3     720      M_A    0.0000
   5042 C         119.1261  197.2275   34.0938 C.3     720      M_A    0.0000
   5043 O         119.5622  196.2304   35.0165 O.3     720      M_A    0.0000
   5044 H         116.9973  197.0944   34.4197 H       720      M_A    0.0000
   5045 H         117.6220  195.8606   33.3460 H       720      M_A    0.0000
   5046 H         119.1346  198.1785   34.6415 H       720      M_A    0.0000
   5047 H         119.8327  197.3467   33.2597 H       720      M_A    0.0000
   5048 C         120.9500  195.9961   34.9200 C.3     721      M_A    0.0000
   5049 C         121.7431  197.2984   34.8716 C.3     721      M_A    0.0000
   5050 O         123.0999  197.0694   35.2488 O.3     721      M_A    0.0000
   5051 H         121.2783  195.3959   35.7772 H       721      M_A    0.0000
   5052 H         121.1576  195.3906   34.0305 H       721      M_A    0.0000
   5053 H         121.3368  198.0106   35.6011 H       721      M_A    0.0000
   5054 H         121.6710  197.7888   33.8900 H       721      M_A    0.0000
   5055 C         123.5856  195.8440   34.7459 C.3     722      M_A    0.0000
   5056 C         124.9707  195.9949   34.1247 C.3     722      M_A    0.0000
   5057 O         125.9106  195.1553   34.7938 O.3     722      M_A    0.0000
   5058 H         123.6234  195.1070   35.5572 H       722      M_A    0.0000
   5059 H         122.8791  195.4456   34.0089 H       722      M_A    0.0000
   5060 H         125.3290  197.0238   34.2560 H       722      M_A    0.0000
   5061 H         124.9590  195.8092   33.0409 H       722      M_A    0.0000
   5062 C         127.1347  195.8172   35.0254 C.3     723      M_A    0.0000
   5063 C         127.7020  196.4246   33.7462 C.3     723      M_A    0.0000
   5064 O         128.6838  197.4123   34.0568 O.3     723      M_A    0.0000
   5065 H         126.9865  196.6051   35.7738 H       723      M_A    0.0000
   5066 H         127.8525  195.1151   35.4645 H       723      M_A    0.0000
   5067 H         126.9076  196.9431   33.1945 H       723      M_A    0.0000
   5068 H         128.0984  195.6571   33.0658 H       723      M_A    0.0000
   5069 C         128.4780  198.6043   33.3308 C.3     724      M_A    0.0000
   5070 C         129.7882  199.1799   32.8024 C.3     724      M_A    0.0000
   5071 O         129.5367  200.0906   31.7332 O.3     724      M_A    0.0000
   5072 H         127.7973  198.4077   32.4938 H       724      M_A    0.0000
   5073 H         127.9696  199.3371   33.9676 H       724      M_A    0.0000
   5074 H         130.4073  198.3765   32.3832 H       724      M_A    0.0000
   5075 H         130.3860  199.6444   33.6000 H       724      M_A    0.0000
   5076 C         130.6081  200.9890   31.5450 C.3     725      M_A    0.0000
   5077 C         130.2403  202.1176   30.5867 C.3     725      M_A    0.0000
   5078 O         131.0776  203.2515   30.8082 O.3     725      M_A    0.0000
   5079 H         130.9050  201.4093   32.5134 H       725      M_A    0.0000
   5080 H         131.4821  200.4427   31.1724 H       725      M_A    0.0000
   5081 H         129.2127  202.4513   30.7794 H       725      M_A    0.0000
   5082 H         130.2661  201.7918   29.5368 H       725      M_A    0.0000
   5083 C         131.7243  203.6664   29.6251 C.3     726      M_A    0.0000
   5084 C         132.2167  205.1069   29.7230 C.3     726      M_A    0.0000
   5085 O         133.4882  205.2426   29.0900 O.3     726      M_A    0.0000
   5086 H         132.5710  203.0001   29.4203 H       726      M_A    0.0000
   5087 H         131.0403  203.5547   28.7761 H       726      M_A    0.0000
   5088 H         132.3662  205.3799   30.7754 H       726      M_A    0.0000
   5089 H         131.4839  205.8214   29.3210 H       726      M_A    0.0000
   5090 C         133.4715  206.2314   28.0839 C.3     727      M_A    0.0000
   5091 C         134.6684  207.1711   28.1921 C.3     727      M_A    0.0000
   5092 O         135.6473  206.8461   27.2063 O.3     727      M_A    0.0000
   5093 H         133.4693  205.7487   27.0992 H       727      M_A    0.0000
   5094 H         132.5356  206.7984   28.1441 H       727      M_A    0.0000
   5095 H         135.1577  207.0422   29.1660 H       727      M_A    0.0000
   5096 H         134.3694  208.2278   28.1355 H       727      M_A    0.0000
   5097 C         135.4633  205.5454   26.6918 C.3     728      M_A    0.0000
   5098 C         135.9447  204.4761   27.6675 C.3     728      M_A    0.0000
   5099 O         135.4550  203.1928   27.2813 O.3     728      M_A    0.0000
   5100 H         134.4011  205.3894   26.4681 H       728      M_A    0.0000
   5101 H         135.9900  205.4528   25.7351 H       728      M_A    0.0000
   5102 H         135.5380  204.6726   28.6677 H       728      M_A    0.0000
   5103 H         137.0392  204.4783   27.7746 H       728      M_A    0.0000
   5104 C         134.1053  203.2462   26.8739 C.3     729      M_A    0.0000
   5105 C         133.5193  201.8527   26.6688 C.3     729      M_A    0.0000
   5106 O         132.0938  201.9104   26.6468 O.3     729      M_A    0.0000
   5107 H         133.5188  203.7859   27.6272 H       729      M_A    0.0000
   5108 H         134.0248  203.8327   25.9517 H       729      M_A    0.0000
   5109 H         133.7882  201.2061   27.5138 H       729      M_A    0.0000
   5110 H         133.9205  201.3651   25.7686 H       729      M_A    0.0000
   5111 C         131.5245  201.2656   27.7651 C.3     730      M_A    0.0000
   5112 C         131.7615  199.7590   27.7326 C.3     730      M_A    0.0000
   5113 O         130.5762  199.0602   28.1105 O.3     730      M_A    0.0000
   5114 H         131.9506  201.6864   28.6838 H       730      M_A    0.0000
   5115 H         130.4507  201.4814   27.8041 H       730      M_A    0.0000
   5116 H         132.5280  199.4853   28.4688 H       730      M_A    0.0000
   5117 H         132.1385  199.4218   26.7563 H       730      M_A    0.0000
   5118 C         130.4431  197.8384   27.4180 C.3     731      M_A    0.0000
   5119 C         131.7447  197.0428   27.4160 C.3     731      M_A    0.0000
   5120 O         131.9286  196.3857   28.6692 O.3     731      M_A    0.0000
   5121 H         129.6472  197.2425   27.8808 H       731      M_A    0.0000
   5122 H         130.1150  198.0342   26.3908 H       731      M_A    0.0000
   5123 H         132.5980  197.7226   27.2969 H       731      M_A    0.0000
   5124 H         131.7948  196.3361   26.5751 H       731      M_A    0.0000
   5125 C         130.7371  196.3505   29.4238 C.3     732      M_A    0.0000
   5126 C         129.8472  195.1775   29.0245 C.3     732      M_A    0.0000
   5127 O         130.3934  193.9511   29.5076 O.3     732      M_A    0.0000
   5128 H         130.9836  196.2803   30.4901 H       732      M_A    0.0000
   5129 H         130.1981  197.2967   29.3004 H       732      M_A    0.0000
   5130 H         129.8131  195.0897   27.9311 H       732      M_A    0.0000
   5131 H         128.8076  195.3176   29.3543 H       732      M_A    0.0000
   5132 C         131.2690  194.1577   30.5944 C.3     733      M_A    0.0000
   5133 C         130.7457  193.5141   31.8746 C.3     733      M_A    0.0000
   5134 O         131.7037  192.5950   32.3975 O.3     733      M_A    0.0000
   5135 H         132.2554  193.7452   30.3506 H       733      M_A    0.0000
   5136 H         131.4199  195.2330   30.7429 H       733      M_A    0.0000
   5137 H         129.8439  192.9277   31.6565 H       733      M_A    0.0000
   5138 H         130.4512  194.2642   32.6228 H       733      M_A    0.0000
   5139 C         131.5777  192.4426   33.7944 C.3     734      M_A    0.0000
   5140 C         130.1167  192.3773   34.2283 C.3     734      M_A    0.0000
   5141 O         129.6962  191.0202   34.3593 O.3     734      M_A    0.0000
   5142 H         132.0972  191.5294   34.1091 H       734      M_A    0.0000
   5143 H         132.0885  193.2699   34.3000 H       734      M_A    0.0000
   5144 H         129.4773  192.8245   33.4565 H       734      M_A    0.0000
   5145 H         129.9339  192.9504   35.1489 H       734      M_A    0.0000
   5146 C         130.7432  190.1165   34.0807 C.3     735      M_A    0.0000
   5147 C         130.3626  188.6817   34.4325 C.3     735      M_A    0.0000
   5148 O         131.5229  187.9321   34.7898 O.3     735      M_A    0.0000
   5149 H         131.0044  190.1787   33.0175 H       735      M_A    0.0000
   5150 H         131.6421  190.4177   34.6305 H       735      M_A    0.0000
   5151 H         129.9324  188.1832   33.5545 H       735      M_A    0.0000
   5152 H         129.5936  188.6397   35.2175 H       735      M_A    0.0000
   5153 C         131.2574  187.0167   35.8301 C.3     736      M_A    0.0000
   5154 C         129.9091  186.3268   35.6481 C.3     736      M_A    0.0000
   5155 O         129.9432  185.0128   36.2033 O.3     736      M_A    0.0000
   5156 H         132.0549  186.2648   35.8655 H       736      M_A    0.0000
   5157 H         131.2914  187.5382   36.7934 H       736      M_A    0.0000
   5158 H         129.6936  186.2037   34.5790 H       736      M_A    0.0000
   5159 H         129.0822  186.9218   36.0620 H       736      M_A    0.0000
   5160 C         128.6479  184.4794   36.3710 C.3     737      M_A    0.0000
   5161 C         128.6800  182.9697   36.5879 C.3     737      M_A    0.0000
   5162 O         127.5534  182.5533   37.3581 O.3     737      M_A    0.0000
   5163 H         128.1624  184.9648   37.2262 H       737      M_A    0.0000
   5164 H         128.0351  184.7255   35.4964 H       737      M_A    0.0000
   5165 H         129.5691  182.6945   37.1695 H       737      M_A    0.0000
   5166 H         128.7503  182.4182   35.6392 H       737      M_A    0.0000
   5167 C         127.3747  181.1546   37.3142 C.3     738      M_A    0.0000
   5168 C         126.4894  180.6597   38.4537 C.3     738      M_A    0.0000
   5169 O         125.9125  179.3972   38.1238 O.3     738      M_A    0.0000
   5170 H         126.9287  180.8747   36.3522 H       738      M_A    0.0000
   5171 H         128.3521  180.6600   37.3489 H       738      M_A    0.0000
   5172 H         125.6508  181.3518   38.6029 H       738      M_A    0.0000
   5173 H         127.0309  180.6220   39.4100 H       738      M_A    0.0000
   5174 C         125.9560  178.4993   39.2111 C.3     739      M_A    0.0000
   5175 C         125.2659  177.1787   38.8840 C.3     739      M_A    0.0000
   5176 O         125.7114  176.1516   39.7687 O.3     739      M_A    0.0000
   5177 H         127.0009  178.3113   39.4862 H       739      M_A    0.0000
   5178 H         125.4920  178.9644   40.0882 H       739      M_A    0.0000
   5179 H         125.5406  176.8540   37.8723 H       739      M_A    0.0000
   5180 H         124.1704  177.2734   38.8898 H       739      M_A    0.0000
   5181 C         124.8779  175.0146   39.7159 C.3     740      M_A    0.0000
   5182 C         125.1719  174.0425   40.8543 C.3     740      M_A    0.0000
   5183 O         123.9909  173.7961   41.6161 O.3     740      M_A    0.0000
   5184 H         123.8286  175.3300   39.7619 H       740      M_A    0.0000
   5185 H         125.0009  174.5157   38.7479 H       740      M_A    0.0000
   5186 H         125.8979  174.4869   41.5470 H       740      M_A    0.0000
   5187 H         125.6245  173.1081   40.4920 H       740      M_A    0.0000
   5188 C         123.3065  172.6468   41.1677 C.3     741      M_A    0.0000
   5189 C         122.9196  171.7299   42.3239 C.3     741      M_A    0.0000
   5190 O         123.4411  170.4183   42.1152 O.3     741      M_A    0.0000
   5191 H         122.4060  172.9500   40.6201 H       741      M_A    0.0000
   5192 H         123.9310  172.1075   40.4465 H       741      M_A    0.0000
   5193 H         121.8282  171.6238   42.3676 H       741      M_A    0.0000
   5194 H         123.2279  172.1401   43.2965 H       741      M_A    0.0000
   5195 C         122.4689  169.4229   42.3483 C.3     742      M_A    0.0000
   5196 C         123.1000  168.0471   42.5383 C.3     742      M_A    0.0000
   5197 O         122.2668  167.2256   43.3548 O.3     742      M_A    0.0000
   5198 H         121.8841  169.6866   43.2378 H       742      M_A    0.0000
   5199 H         121.7580  169.4038   41.5145 H       742      M_A    0.0000
   5200 H         124.0542  168.1441   43.0718 H       742      M_A    0.0000
   5201 H         123.3322  167.5638   41.5783 H       742      M_A    0.0000
   5202 C         120.9163  167.2810   42.9507 C.3     743      M_A    0.0000
   5203 C         120.2358  165.9199   43.0582 C.3     743      M_A    0.0000
   5204 O         119.5017  165.8251   44.2780 O.3     743      M_A    0.0000
   5205 H         120.3809  168.0110   43.5696 H       743      M_A    0.0000
   5206 H         120.8574  167.6560   41.9227 H       743      M_A    0.0000
   5207 H         120.9923  165.1255   43.0918 H       743      M_A    0.0000
   5208 H         119.6029  165.7051   42.1850 H       743      M_A    0.0000
   5209 C         118.5907  164.7480   44.2608 C.3     744      M_A    0.0000
   5210 C         119.1016  163.5866   43.4140 C.3     744      M_A    0.0000
   5211 O         119.3723  162.4522   44.2360 O.3     744      M_A    0.0000
   5212 H         118.4124  164.4057   45.2873 H       744      M_A    0.0000
   5213 H         117.6212  165.0951   43.8858 H       744      M_A    0.0000
   5214 H         120.0542  163.8590   42.9420 H       744      M_A    0.0000
   5215 H         118.4118  163.3393   42.5941 H       744      M_A    0.0000
   5216 C         120.6000  162.5794   44.9194 C.3     745      M_A    0.0000
   5217 C         120.8336  161.4225   45.8859 C.3     745      M_A    0.0000
   5218 O         121.0059  161.9113   47.2153 O.3     745      M_A    0.0000
   5219 H         121.4189  162.6230   44.1913 H       745      M_A    0.0000
   5220 H         120.6224  163.5345   45.4562 H       745      M_A    0.0000
   5221 H         121.7639  160.9010   45.6267 H       745      M_A    0.0000
   5222 H         120.0335  160.6702   45.8297 H       745      M_A    0.0000
   5223 C         120.0271  161.4009   48.0938 C.3     746      M_A    0.0000
   5224 C         120.0982  159.8808   48.2007 C.3     746      M_A    0.0000
   5225 O         119.1086  159.3987   49.1086 O.3     746      M_A    0.0000
   5226 H         120.1609  161.8472   49.0866 H       746      M_A    0.0000
   5227 H         119.0329  161.7127   47.7543 H       746      M_A    0.0000
   5228 H         121.0688  159.5804   48.6154 H       746      M_A    0.0000
   5229 H         120.0198  159.3942   47.2177 H       746      M_A    0.0000
   5230 C         118.6930  158.0896   48.7863 C.3     747      M_A    0.0000
   5231 C         117.9294  158.0457   47.4664 C.3     747      M_A    0.0000
   5232 O         117.8622  156.7081   46.9743 O.3     747      M_A    0.0000
   5233 H         119.5698  157.4335   48.7273 H       747      M_A    0.0000
   5234 H         118.0731  157.6926   49.5983 H       747      M_A    0.0000
   5235 H         118.4652  158.6272   46.7053 H       747      M_A    0.0000
   5236 H         116.9308  158.4980   47.5525 H       747      M_A    0.0000
   5237 C         118.0187  155.7597   48.0069 C.3     748      M_A    0.0000
   5238 C         117.1808  154.5090   47.7600 C.3     748      M_A    0.0000
   5239 O         117.6886  153.4119   48.5178 O.3     748      M_A    0.0000
   5240 H         119.0768  155.4843   48.0908 H       748      M_A    0.0000
   5241 H         117.7485  156.2157   48.9661 H       748      M_A    0.0000
   5242 H         117.2520  154.2138   46.7054 H       748      M_A    0.0000
   5243 H         116.1133  154.6817   47.9596 H       748      M_A    0.0000
   5244 C         118.0148  153.7906   49.8371 C.3     749      M_A    0.0000
   5245 C         117.1181  153.1038   50.8624 C.3     749      M_A    0.0000
   5246 O         117.6293  153.2979   52.1803 O.3     749      M_A    0.0000
   5247 H         119.0636  153.5415   50.0385 H       749      M_A    0.0000
   5248 H         117.9393  154.8797   49.9340 H       749      M_A    0.0000
   5249 H         117.1153  152.0200   50.6899 H       749      M_A    0.0000
   5250 H         116.0716  153.4310   50.7799 H       749      M_A    0.0000
   5251 C         118.8620  152.6380   52.3684 C.3     750      M_A    0.0000
   5252 C         119.5663  152.3635   51.0433 C.3     750      M_A    0.0000
   5253 O         120.5134  153.3925   50.7603 O.3     750      M_A    0.0000
   5254 H         119.5080  153.2495   53.0098 H       750      M_A    0.0000
   5255 H         118.6959  151.7014   52.9125 H       750      M_A    0.0000
   5256 H         118.8381  152.3811   50.2224 H       750      M_A    0.0000
   5257 H         120.0301  151.3667   51.0216 H       750      M_A    0.0000
   5258 C         120.1569  154.1341   49.6143 C.3     751      M_A    0.0000
   5259 C         121.1473  153.9254   48.4729 C.3     751      M_A    0.0000
   5260 O         121.2443  152.5402   48.1448 O.3     751      M_A    0.0000
   5261 H         119.1517  153.8404   49.2888 H       751      M_A    0.0000
   5262 H         120.0919  155.1972   49.8725 H       751      M_A    0.0000
   5263 H         122.1512  154.2383   48.7874 H       751      M_A    0.0000
   5264 H         120.8968  154.5353   47.5929 H       751      M_A    0.0000
   5265 C         121.8640  152.3387   46.8935 C.3     752      M_A    0.0000
   5266 C         121.0266  151.4458   45.9832 C.3     752      M_A    0.0000
   5267 O         121.5383  150.1139   45.9845 O.3     752      M_A    0.0000
   5268 H         122.0291  153.3085   46.4088 H       752      M_A    0.0000
   5269 H         122.8584  151.9033   47.0440 H       752      M_A    0.0000
   5270 H         121.0944  151.8005   44.9468 H       752      M_A    0.0000
   5271 H         119.9597  151.4718   46.2480 H       752      M_A    0.0000
   5272 C         120.5385  149.1671   46.2914 C.3     753      M_A    0.0000
   5273 C         119.9268  149.4139   47.6670 C.3     753      M_A    0.0000
   5274 O         118.5217  149.6354   47.5546 O.3     753      M_A    0.0000
   5275 H         119.7537  149.2055   45.5264 H       753      M_A    0.0000
   5276 H         120.9622  148.1578   46.2387 H       753      M_A    0.0000
   5277 H         120.3484  150.3276   48.1049 H       753      M_A    0.0000
   5278 H         120.1553  148.6013   48.3717 H       753      M_A    0.0000
   5279 C         117.9153  149.8141   48.8158 C.3     754      M_A    0.0000
   5280 C         116.4877  150.3369   48.6897 C.3     754      M_A    0.0000
   5281 O         115.9774  150.0809   47.3821 O.3     754      M_A    0.0000
   5282 H         117.9125  148.8601   49.3567 H       754      M_A    0.0000
   5283 H         118.5205  150.5008   49.4184 H       754      M_A    0.0000
   5284 H         116.4764  151.4269   48.8167 H       754      M_A    0.0000
   5285 H         115.8290  149.9295   49.4703 H       754      M_A    0.0000
   5286 C         114.5750  150.2247   47.3279 C.3     755      M_A    0.0000
   5287 C         114.0746  151.2800   48.3092 C.3     755      M_A    0.0000
   5288 O         112.6560  151.4068   48.2237 O.3     755      M_A    0.0000
   5289 H         114.2763  150.4975   46.3086 H       755      M_A    0.0000
   5290 H         114.1003  149.2584   47.5330 H       755      M_A    0.0000
   5291 H         114.4879  152.2618   48.0450 H       755      M_A    0.0000
   5292 H         114.4033  151.0750   49.3383 H       755      M_A    0.0000
   5293 C         112.0921  150.4352   47.3703 C.3     756      M_A    0.0000
   5294 C         112.9590  149.1828   47.2857 C.3     756      M_A    0.0000
   5295 O         113.0469  148.7282   45.9361 O.3     756      M_A    0.0000
   5296 H         111.0924  150.1681   47.7333 H       756      M_A    0.0000
   5297 H         111.9460  150.8652   46.3729 H       756      M_A    0.0000
   5298 H         112.4947  148.3677   47.8554 H       756      M_A    0.0000
   5299 H         113.9537  149.3391   47.7277 H       756      M_A    0.0000
   5300 C         113.3483  147.3519   45.8636 C.3     757      M_A    0.0000
   5301 C         114.6510  147.0954   45.1125 C.3     757      M_A    0.0000
   5302 O         115.7589  147.1297   46.0110 O.3     757      M_A    0.0000
   5303 H         113.4201  146.9412   46.8779 H       757      M_A    0.0000
   5304 H         112.5197  146.8211   45.3811 H       757      M_A    0.0000
   5305 H         114.8237  147.8943   44.3802 H       757      M_A    0.0000
   5306 H         114.6196  146.1562   44.5413 H       757      M_A    0.0000
   5307 C         115.3418  147.1751   47.3580 C.3     758      M_A    0.0000
   5308 C         115.7772  145.9326   48.1287 C.3     758      M_A    0.0000
   5309 O         115.5490  144.7587   47.3506 O.3     758      M_A    0.0000
   5310 H         115.7559  148.0704   47.8372 H       758      M_A    0.0000
   5311 H         114.2524  147.2868   47.3999 H       758      M_A    0.0000
   5312 H         115.1694  145.8236   49.0359 H       758      M_A    0.0000
   5313 H         116.8220  146.0010   48.4649 H       758      M_A    0.0000
   5314 C         116.3519  143.6804   47.7782 C.3     759      M_A    0.0000
   5315 C         116.5169  143.6625   49.2946 C.3     759      M_A    0.0000
   5316 O         115.6259  142.7150   49.8813 O.3     759      M_A    0.0000
   5317 H         115.9024  142.7373   47.4448 H       759      M_A    0.0000
   5318 H         117.3311  143.7374   47.2893 H       759      M_A    0.0000
   5319 H         116.2444  144.6404   49.7117 H       759      M_A    0.0000
   5320 H         117.5591  143.4802   49.5939 H       759      M_A    0.0000
   5321 C         114.7436  143.3218   50.7998 C.3     760      M_A    0.0000
   5322 C         113.9761  142.2874   51.6172 C.3     760      M_A    0.0000
   5323 O         113.6187  142.8241   52.8900 O.3     760      M_A    0.0000
   5324 H         115.3116  143.9759   51.4723 H       760      M_A    0.0000
   5325 H         114.0472  143.9745   50.2611 H       760      M_A    0.0000
   5326 H         114.6171  141.4195   51.8181 H       760      M_A    0.0000
   5327 H         113.0988  141.9033   51.0769 H       760      M_A    0.0000
   5328 C         112.3691  142.3408   53.3320 C.3     761      M_A    0.0000
   5329 C         112.3509  140.8184   53.4262 C.3     761      M_A    0.0000
   5330 O         111.5453  140.3972   54.5260 O.3     761      M_A    0.0000
   5331 H         112.1375  142.7740   54.3125 H       761      M_A    0.0000
   5332 H         111.5817  142.6899   52.6543 H       761      M_A    0.0000
   5333 H         113.3632  140.4441   53.6251 H       761      M_A    0.0000
   5334 H         112.0297  140.3507   52.4842 H       761      M_A    0.0000
   5335 C         111.1751  139.0402   54.4169 C.3     762      M_A    0.0000
   5336 C         112.2974  138.1917   53.8272 C.3     762      M_A    0.0000
   5337 O         112.4060  136.9533   54.5274 O.3     762      M_A    0.0000
   5338 H         110.9040  138.6562   55.4077 H       762      M_A    0.0000
   5339 H         110.2713  138.9560   53.8029 H       762      M_A    0.0000
   5340 H         113.2598  138.7034   53.9558 H       762      M_A    0.0000
   5341 H         112.1731  138.0378   52.7455 H       762      M_A    0.0000
   5342 C         111.2981  136.7279   55.3713 C.3     763      M_A    0.0000
   5343 C         110.8349  135.2752   55.3234 C.3     763      M_A    0.0000
   5344 O         110.4090  134.8455   56.6156 O.3     763      M_A    0.0000
   5345 H         111.5642  136.9965   56.4008 H       763      M_A    0.0000
   5346 H         110.4793  137.3983   55.0866 H       763      M_A    0.0000
   5347 H         111.6733  134.6247   55.0435 H       763      M_A    0.0000
   5348 H         110.0553  135.1159   54.5644 H       763      M_A    0.0000
   5349 C         109.5321  133.7429   56.5402 C.3     764      M_A    0.0000
   5350 C         110.2163  132.4446   56.9569 C.3     764      M_A    0.0000
   5351 O         109.2668  131.5391   57.5175 O.3     764      M_A    0.0000
   5352 H         108.6627  133.9247   57.1834 H       764      M_A    0.0000
   5353 H         109.1403  133.6564   55.5204 H       764      M_A    0.0000
   5354 H         110.9520  132.6465   57.7459 H       764      M_A    0.0000
   5355 H         110.7735  131.9872   56.1266 H       764      M_A    0.0000
   5356 C         109.7737  130.2245   57.5902 C.3     765      M_A    0.0000
   5357 C         108.7127  129.2325   58.0563 C.3     765      M_A    0.0000
   5358 O         109.1370  127.8939   57.8030 O.3     765      M_A    0.0000
   5359 H         110.1514  129.9251   56.6051 H       765      M_A    0.0000
   5360 H         110.6377  130.2026   58.2640 H       765      M_A    0.0000
   5361 H         107.7886  129.3763   57.4819 H       765      M_A    0.0000
   5362 H         108.4446  129.3812   59.1123 H       765      M_A    0.0000
   5363 C         108.4060  126.9579   58.5645 C.3     766      M_A    0.0000
   5364 C         107.3025  126.2974   57.7439 C.3     766      M_A    0.0000
   5365 O         107.0206  124.9925   58.2477 O.3     766      M_A    0.0000
   5366 H         109.0880  126.1908   58.9507 H       766      M_A    0.0000
   5367 H         107.9810  127.4544   59.4442 H       766      M_A    0.0000
   5368 H         107.6377  126.1615   56.7078 H       766      M_A    0.0000
   5369 H         106.3967  126.9189   57.6951 H       766      M_A    0.0000
   5370 C         106.9109  124.9846   59.6542 C.3     767      M_A    0.0000
   5371 C         106.3829  123.6512   60.1744 C.3     767      M_A    0.0000
   5372 O         106.7591  123.4646   61.5380 O.3     767      M_A    0.0000
   5373 H         107.8927  125.1907   60.0970 H       767      M_A    0.0000
   5374 H         106.2574  125.8040   59.9745 H       767      M_A    0.0000
   5375 H         106.8380  122.8248   59.6137 H       767      M_A    0.0000
   5376 H         105.2963  123.5555   60.0355 H       767      M_A    0.0000
   5377 C         105.7496  122.8129   62.2772 C.3     768      M_A    0.0000
   5378 C         105.2301  121.5727   61.5566 C.3     768      M_A    0.0000
   5379 O         105.3657  120.4206   62.3875 O.3     768      M_A    0.0000
   5380 H         106.1437  122.5301   63.2607 H       768      M_A    0.0000
   5381 H         104.9287  123.5126   62.4708 H       768      M_A    0.0000
   5382 H         105.8351  121.3796   60.6616 H       768      M_A    0.0000
   5383 H         104.1957  121.7021   61.2066 H       768      M_A    0.0000
   5384 C         104.2869  119.5260   62.2257 C.3     769      M_A    0.0000
   5385 C         104.7085  118.0797   62.4657 C.3     769      M_A    0.0000
   5386 O         103.6520  117.3497   63.0876 O.3     769      M_A    0.0000
   5387 H         103.4827  119.7961   62.9207 H       769      M_A    0.0000
   5388 H         103.8667  119.6382   61.2197 H       769      M_A    0.0000
   5389 H         105.5560  118.0483   63.1624 H       769      M_A    0.0000
   5390 H         105.0515  117.5915   61.5420 H       769      M_A    0.0000
   5391 C         103.6172  116.0066   62.6574 C.3     770      M_A    0.0000
   5392 C         103.3485  115.0477   63.8132 C.3     770      M_A    0.0000
   5393 O         102.6345  113.9012   63.3532 O.3     770      M_A    0.0000
   5394 H         102.8401  115.8894   61.8926 H       770      M_A    0.0000
   5395 H         104.5642  115.7553   62.1665 H       770      M_A    0.0000
   5396 H         102.7053  115.5322   64.5588 H       770      M_A    0.0000
   5397 H         104.2723  114.7674   64.3396 H       770      M_A    0.0000
   5398 C         102.7140  112.8305   64.2684 C.3     771      M_A    0.0000
   5399 C         101.4494  111.9774   64.2546 C.3     771      M_A    0.0000
   5400 O         101.7443  110.6432   64.6654 O.3     771      M_A    0.0000
   5401 H         103.5825  112.2069   64.0244 H       771      M_A    0.0000
   5402 H         102.8976  113.2230   65.2751 H       771      M_A    0.0000
   5403 H         101.0586  111.9053   63.2316 H       771      M_A    0.0000
   5404 H         100.6460  112.4213   64.8601 H       771      M_A    0.0000
   5405 C         102.5676  109.9763   63.7338 C.3     772      M_A    0.0000
   5406 C         102.7470  108.5034   64.0879 C.3     772      M_A    0.0000
   5407 O         104.0872  108.2520   64.5080 O.3     772      M_A    0.0000
   5408 H         102.1294  110.0643   62.7324 H       772      M_A    0.0000
   5409 H         103.5411  110.4769   63.6823 H       772      M_A    0.0000
   5410 H         102.5816  107.8824   63.1983 H       772      M_A    0.0000
   5411 H         102.0160  108.1675   64.8377 H       772      M_A    0.0000
   5412 C         104.3401  106.8724   64.6604 C.3     773      M_A    0.0000
   5413 C         103.3665  106.2219   65.6382 C.3     773      M_A    0.0000
   5414 O         103.1201  104.8662   65.2678 O.3     773      M_A    0.0000
   5415 H         104.2671  106.3790   63.6838 H       773      M_A    0.0000
   5416 H         105.3728  106.7250   64.9965 H       773      M_A    0.0000
   5417 H         102.3966  106.7337   65.5958 H       773      M_A    0.0000
   5418 H         103.7117  106.3028   66.6791 H       773      M_A    0.0000
   5419 C         102.1283  104.2724   66.0765 C.3     774      M_A    0.0000
   5420 C         100.7487  104.8664   65.8101 C.3     774      M_A    0.0000
   5421 O          99.7369  104.0723   66.4278 O.3     774      M_A    0.0000
   5422 H         102.1067  103.1917   65.8913 H       774      M_A    0.0000
   5423 H         102.3972  104.3924   67.1321 H       774      M_A    0.0000
   5424 H         100.5370  104.8515   64.7333 H       774      M_A    0.0000
   5425 H         100.6860  105.9192   66.1213 H       774      M_A    0.0000
   5426 C          99.7337  104.2234   67.8305 C.3     775      M_A    0.0000
   5427 C          99.0218  103.0659   68.5239 C.3     775      M_A    0.0000
   5428 O          99.8241  102.5528   69.5864 O.3     775      M_A    0.0000
   5429 H         100.7670  104.2906   68.1917 H       775      M_A    0.0000
   5430 H          99.2591  105.1753   68.0945 H       775      M_A    0.0000
   5431 H          98.8798  102.2378   67.8179 H       775      M_A    0.0000
   5432 H          98.0179  103.3486   68.8723 H       775      M_A    0.0000
   5433 C          99.0956  101.6783   70.4199 C.3     776      M_A    0.0000
   5434 C          97.9722  100.9773   69.6625 C.3     776      M_A    0.0000
   5435 O          97.9885   99.5762   69.9321 O.3     776      M_A    0.0000
   5436 H          99.7756  100.9309   70.8462 H       776      M_A    0.0000
   5437 H          98.6900  102.2374   71.2708 H       776      M_A    0.0000
   5438 H          98.1268  101.0844   68.5813 H       776      M_A    0.0000
   5439 H          96.9896  101.4215   69.8781 H       776      M_A    0.0000
   5440 C          96.6855   99.0424   70.0182 C.3     777      M_A    0.0000
   5441 C          96.7023   97.5613   70.3835 C.3     777      M_A    0.0000
   5442 O          95.5810   97.2382   71.2045 O.3     777      M_A    0.0000
   5443 H          96.1122   99.6008   70.7681 H       777      M_A    0.0000
   5444 H          96.1647   99.1938   69.0659 H       777      M_A    0.0000
   5445 H          97.5956   97.3335   70.9789 H       777      M_A    0.0000
   5446 H          96.7536   96.9177   69.4934 H       777      M_A    0.0000
   5447 C          95.3437   95.8481   71.2465 C.3     778      M_A    0.0000
   5448 C          96.6415   95.0543   71.3596 C.3     778      M_A    0.0000
   5449 O          96.4731   93.9482   72.2450 O.3     778      M_A    0.0000
   5450 H          94.6935   95.6155   72.0984 H       778      M_A    0.0000
   5451 H          94.7886   95.5448   70.3515 H       778      M_A    0.0000
   5452 H          97.4270   95.6829   71.7982 H       778      M_A    0.0000
   5453 H          97.0165   94.7349   70.3765 H       778      M_A    0.0000
   5454 C          95.1535   93.4498   72.2182 C.3     779      M_A    0.0000
   5455 C          95.0945   91.9791   72.6192 C.3     779      M_A    0.0000
   5456 O          93.8531   91.6869   73.2590 O.3     779      M_A    0.0000
   5457 H          94.5268   94.0423   72.8955 H       779      M_A    0.0000
   5458 H          94.7306   93.5886   71.2167 H       779      M_A    0.0000
   5459 H          95.8789   91.7607   73.3550 H       779      M_A    0.0000
   5460 H          95.2792   91.3111   71.7654 H       779      M_A    0.0000
   5461 C          93.8795   90.4360   73.9109 C.3     780      M_A    0.0000
   5462 C          93.5547   89.2917   72.9558 C.3     780      M_A    0.0000
   5463 O          94.0125   88.0510   73.4914 O.3     780      M_A    0.0000
   5464 H          94.8702   90.2772   74.3536 H       780      M_A    0.0000
   5465 H          93.1727   90.4453   74.7484 H       780      M_A    0.0000
   5466 H          94.0887   89.4334   72.0076 H       780      M_A    0.0000
   5467 H          92.4849   89.2560   72.7039 H       780      M_A    0.0000
   5468 C          93.3650   87.7308   74.7032 C.3     781      M_A    0.0000
   5469 C          92.9990   86.2516   74.7770 C.3     781      M_A    0.0000
   5470 O          92.8641   85.8394   76.1363 O.3     781      M_A    0.0000
   5471 H          94.0179   87.9918   75.5447 H       781      M_A    0.0000
   5472 H          92.4681   88.3509   74.8134 H       781      M_A    0.0000
   5473 H          93.8077   85.6448   74.3502 H       781      M_A    0.0000
   5474 H          92.0982   86.0199   74.1905 H       781      M_A    0.0000
   5475 C          92.4635   84.4906   76.2391 C.3     782      M_A    0.0000
   5476 C          91.0757   84.2644   75.6473 C.3     782      M_A    0.0000
   5477 O          90.8016   82.8683   75.5402 O.3     782      M_A    0.0000
   5478 H          93.1926   83.8540   75.7236 H       782      M_A    0.0000
   5479 H          92.4839   84.1823   77.2906 H       782      M_A    0.0000
   5480 H          91.0350   84.6653   74.6265 H       782      M_A    0.0000
   5481 H          90.2945   84.7899   76.2155 H       782      M_A    0.0000
   5482 C          91.3758   82.1370   76.6013 C.3     783      M_A    0.0000
   5483 C          90.6102   80.8476   76.8811 C.3     783      M_A    0.0000
   5484 O          91.4529   79.9001   77.5353 O.3     783      M_A    0.0000
   5485 H          92.4189   81.9015   76.3584 H       783      M_A    0.0000
   5486 H          91.4092   82.7627   77.5004 H       783      M_A    0.0000
   5487 H          90.3015   80.3836   75.9356 H       783      M_A    0.0000
   5488 H          89.6869   81.0312   77.4494 H       783      M_A    0.0000
   5489 C          90.7336   79.0979   78.4461 C.3     784      M_A    0.0000
   5490 C          90.1837   77.8395   77.7819 C.3     784      M_A    0.0000
   5491 O          90.0997   76.7738   78.7269 O.3     784      M_A    0.0000
   5492 H          91.3880   78.8187   79.2806 H       784      M_A    0.0000
   5493 H          89.9183   79.6841   78.8849 H       784      M_A    0.0000
   5494 H          90.8711   77.5007   76.9963 H       784      M_A    0.0000
   5495 H          89.2183   78.0221   77.2880 H       784      M_A    0.0000
   5496 C          88.8035   76.6551   79.2713 C.3     785      M_A    0.0000
   5497 C          88.4268   75.1991   79.5269 C.3     785      M_A    0.0000
   5498 O          87.7984   75.0636   80.8006 O.3     785      M_A    0.0000
   5499 H          88.7498   77.2203   80.2096 H       785      M_A    0.0000
   5500 H          88.0789   77.1229   78.5953 H       785      M_A    0.0000
   5501 H          89.3321   74.5797   79.5628 H       785      M_A    0.0000
   5502 H          87.8038   74.7866   78.7201 H       785      M_A    0.0000
   5503 C          87.0181   73.8909   80.8796 C.3     786      M_A    0.0000
   5504 C          87.8418   72.6407   80.5868 C.3     786      M_A    0.0000
   5505 O          87.4035   71.5538   81.4006 O.3     786      M_A    0.0000
   5506 H          86.5753   73.8151   81.8800 H       786      M_A    0.0000
   5507 H          86.1762   73.9643   80.1818 H       786      M_A    0.0000
   5508 H          88.8932   72.8164   80.8479 H       786      M_A    0.0000
   5509 H          87.8297   72.3798   79.5186 H       786      M_A    0.0000
   5510 C          87.4922   70.3201   80.7219 C.3     787      M_A    0.0000
   5511 C          87.0530   69.1551   81.6034 C.3     787      M_A    0.0000
   5512 O          86.5081   68.1050   80.8058 O.3     787      M_A    0.0000
   5513 H          86.8696   70.3553   79.8198 H       787      M_A    0.0000
   5514 H          88.5200   70.1676   80.3735 H       787      M_A    0.0000
   5515 H          86.2494   69.4785   82.2773 H       787      M_A    0.0000
   5516 H          87.8683   68.7952   82.2476 H       787      M_A    0.0000
   5517 C          86.5851   66.8560   81.4573 C.3     788      M_A    0.0000
   5518 C          86.3032   66.9775   82.9516 C.3     788      M_A    0.0000
   5519 O          85.3740   65.9771   83.3660 O.3     788      M_A    0.0000
   5520 H          85.8676   66.1630   81.0016 H       788      M_A    0.0000
   5521 H          87.5756   66.4175   81.2911 H       788      M_A    0.0000
   5522 H          85.8301   67.9444   83.1652 H       788      M_A    0.0000
   5523 H          87.2259   66.9480   83.5490 H       788      M_A    0.0000
   5524 C          85.7208   64.7014   82.8734 C.3     789      M_A    0.0000
   5525 C          85.1560   63.5841   83.7450 C.3     789      M_A    0.0000
   5526 O          84.9296   62.4106   82.9655 O.3     789      M_A    0.0000
   5527 H          85.3479   64.5936   81.8477 H       789      M_A    0.0000
   5528 H          86.8117   64.6189   82.8080 H       789      M_A    0.0000
   5529 H          84.1784   63.8807   84.1458 H       789      M_A    0.0000
   5530 H          85.7952   63.3770   84.6155 H       789      M_A    0.0000
   5531 C          85.2117   61.2346   83.6920 C.3     790      M_A    0.0000
   5532 C          84.5619   61.2509   85.0721 C.3     790      M_A    0.0000
   5533 O          83.6548   60.1580   85.2083 O.3     790      M_A    0.0000
   5534 H          84.8567   60.3641   83.1274 H       790      M_A    0.0000
   5535 H          86.2970   61.1129   83.7835 H       790      M_A    0.0000
   5536 H          83.9645   62.1636   85.1931 H       790      M_A    0.0000
   5537 H          85.3085   61.2628   85.8793 H       790      M_A    0.0000
   5538 C          84.3177   58.9141   85.1472 C.3     791      M_A    0.0000
   5539 C          83.5709   57.8347   85.9245 C.3     791      M_A    0.0000
   5540 O          83.7173   56.5683   85.2837 O.3     791      M_A    0.0000
   5541 H          84.4221   58.6086   84.0992 H       791      M_A    0.0000
   5542 H          85.3377   59.0242   85.5326 H       791      M_A    0.0000
   5543 H          82.4957   58.0544   85.9300 H       791      M_A    0.0000
   5544 H          83.8821   57.7956   86.9785 H       791      M_A    0.0000
   5545 C          83.6888   55.5043   86.2098 C.3     792      M_A    0.0000
   5546 C          82.5777   55.6790   87.2403 C.3     792      M_A    0.0000
   5547 O          81.7399   54.5245   87.2698 O.3     792      M_A    0.0000
   5548 H          83.5488   54.5583   85.6730 H       792      M_A    0.0000
   5549 H          84.6618   55.4273   86.7082 H       792      M_A    0.0000
   5550 H          81.9328   56.5201   86.9556 H       792      M_A    0.0000
   5551 H          82.9742   55.9193   88.2375 H       792      M_A    0.0000
   5552 C          82.2454   53.5301   88.1335 C.3     793      M_A    0.0000
   5553 C          81.1939   52.4742   88.4597 C.3     793      M_A    0.0000
   5554 O          81.8154   51.2168   88.7215 O.3     793      M_A    0.0000
   5555 H          83.1161   53.0524   87.6684 H       793      M_A    0.0000
   5556 H          82.6135   53.9979   89.0537 H       793      M_A    0.0000
   5557 H          80.5387   52.3191   87.5931 H       793      M_A    0.0000
   5558 H          80.5404   52.7850   89.2876 H       793      M_A    0.0000
   5559 C          81.0838   50.4532   89.6553 C.3     794      M_A    0.0000
   5560 C          80.1532   49.4580   88.9693 C.3     794      M_A    0.0000
   5561 O          80.0195   48.2763   89.7577 O.3     794      M_A    0.0000
   5562 H          81.7796   49.9161   90.3111 H       794      M_A    0.0000
   5563 H          80.5113   51.1231   90.3069 H       794      M_A    0.0000
   5564 H          80.5853   49.1416   88.0113 H       794      M_A    0.0000
   5565 H          79.1755   49.9025   88.7338 H       794      M_A    0.0000
   5566 C          78.9204   47.4926   89.3477 C.3     795      M_A    0.0000
   5567 C          78.7144   46.2850   90.2569 C.3     795      M_A    0.0000
   5568 O          77.4262   45.7115   90.0386 O.3     795      M_A    0.0000
   5569 H          78.0143   48.1103   89.3437 H       795      M_A    0.0000
   5570 H          79.0690   47.1681   88.3115 H       795      M_A    0.0000
   5571 H          78.7368   46.6003   91.3078 H       795      M_A    0.0000
   5572 H          79.5157   45.5408   90.1419 H       795      M_A    0.0000
   5573 C          77.1621   44.6557   90.9363 C.3     796      M_A    0.0000
   5574 C          78.1850   43.5314   90.8064 C.3     796      M_A    0.0000
   5575 O          78.1384   42.6812   91.9512 O.3     796      M_A    0.0000
   5576 H          77.1660   45.0413   91.9629 H       796      M_A    0.0000
   5577 H          76.1504   44.2721   90.7619 H       796      M_A    0.0000
   5578 H          79.1988   43.9505   90.7752 H       796      M_A    0.0000
   5579 H          78.0578   42.9641   89.8730 H       796      M_A    0.0000
   5580 C          76.8289   42.5578   92.4613 C.3     797      M_A    0.0000
   5581 C          76.4967   41.1148   92.8282 C.3     797      M_A    0.0000
   5582 O          75.6337   41.0758   93.9638 O.3     797      M_A    0.0000
   5583 H          76.7210   43.1975   93.3456 H       797      M_A    0.0000
   5584 H          76.1122   42.9381   91.7245 H       797      M_A    0.0000
   5585 H          77.4117   40.5829   93.1185 H       797      M_A    0.0000
   5586 H          76.0750   40.5598   91.9778 H       797      M_A    0.0000
   5587 C          75.5444   39.7788   94.5117 C.3     798      M_A    0.0000
   5588 C          75.6437   38.7010   93.4368 C.3     798      M_A    0.0000
   5589 O          75.8519   37.4213   94.0325 O.3     798      M_A    0.0000
   5590 H          76.3442   39.6394   95.2490 H       798      M_A    0.0000
   5591 H          74.6035   39.6796   95.0647 H       798      M_A    0.0000
   5592 H          76.5165   38.8890   92.7986 H       798      M_A    0.0000
   5593 H          74.7693   38.7018   92.7701 H       798      M_A    0.0000
   5594 C          74.8054   37.0749   94.9129 C.3     799      M_A    0.0000
   5595 C          74.6878   35.5640   95.0876 C.3     799      M_A    0.0000
   5596 O          74.1027   35.2529   96.3512 O.3     799      M_A    0.0000
   5597 H          74.9786   37.5466   95.8877 H       799      M_A    0.0000
   5598 H          73.8619   37.4897   94.5404 H       799      M_A    0.0000
   5599 H          75.6867   35.1094   95.0905 H       799      M_A    0.0000
   5600 H          74.1387   35.0946   94.2585 H       799      M_A    0.0000
   5601 C          73.5124   33.9715   96.3557 C.3     800      M_A    0.0000
   5602 C          74.3336   32.9658   95.5549 C.3     800      M_A    0.0000
   5603 O          74.4305   31.7288   96.2592 O.3     800      M_A    0.0000
   5604 H          73.4083   33.6225   97.3901 H       800      M_A    0.0000
   5605 H          72.4943   34.0367   95.9553 H       800      M_A    0.0000
   5606 H          75.3608   33.3331   95.4352 H       800      M_A    0.0000
   5607 H          73.9369   32.8254   94.5390 H       800      M_A    0.0000
   5608 C          73.2522   31.4406   96.9797 C.3     801      M_A    0.0000
   5609 C          73.0288   29.9384   97.1240 C.3     801      M_A    0.0000
   5610 O          72.3907   29.6470   98.3665 O.3     801      M_A    0.0000
   5611 H          73.3108   31.9019   97.9728 H       801      M_A    0.0000
   5612 H          72.3952   31.9067   96.4804 H       801      M_A    0.0000
   5613 H          73.9945   29.4173   97.1443 H       801      M_A    0.0000
   5614 H          72.4717   29.5207   96.2729 H       801      M_A    0.0000
   5615 C          71.6972   28.4192   98.3258 C.3     802      M_A    0.0000
   5616 C          72.4610   27.3623   97.5342 C.3     802      M_A    0.0000
   5617 O          72.5658   26.1551   98.2876 O.3     802      M_A    0.0000
   5618 H          71.5277   28.0629   99.3491 H       802      M_A    0.0000
   5619 H          70.7029   28.5751   97.8921 H       802      M_A    0.0000
   5620 H          73.4887   27.7018   97.3524 H       802      M_A    0.0000
   5621 H          72.0156   27.1865   96.5444 H       802      M_A    0.0000
   5622 C          71.4277   25.9373   99.0923 C.3     803      M_A    0.0000
   5623 C          71.1610   24.4507   99.3071 C.3     803      M_A    0.0000
   5624 O          70.6233   24.2244  100.6092 O.3     803      M_A    0.0000
   5625 H          71.5673   26.4309  100.0615 H       803      M_A    0.0000
   5626 H          70.5570   26.4177   98.6316 H       803      M_A    0.0000
   5627 H          72.1042   23.8915   99.2621 H       803      M_A    0.0000
   5628 H          70.5162   24.0298   98.5220 H       803      M_A    0.0000
   5629 C          69.8480   23.0468  100.6602 C.3     804      M_A    0.0000
   5630 C          70.4810   21.9157   99.8559 C.3     804      M_A    0.0000
   5631 O          70.6115   20.7448  100.6609 O.3     804      M_A    0.0000
   5632 H          69.7284   22.7348  101.7047 H       804      M_A    0.0000
   5633 H          68.8380   23.2578  100.2908 H       804      M_A    0.0000
   5634 H          71.4980   22.1960   99.5533 H       804      M_A    0.0000
   5635 H          69.9291   21.7112   98.9270 H       804      M_A    0.0000
   5636 C          70.4522   19.5656   99.9030 C.3     805      M_A    0.0000
   5637 C          70.8198   18.3215  100.7057 C.3     805      M_A    0.0000
   5638 O          71.7906   17.5456  100.0048 O.3     805      M_A    0.0000
   5639 H          69.4129   19.4903   99.5611 H       805      M_A    0.0000
   5640 H          71.0644   19.6283   98.9962 H       805      M_A    0.0000
   5641 H          69.9382   17.6785  100.8230 H       805      M_A    0.0000
   5642 H          71.1558   18.5712  101.7225 H       805      M_A    0.0000
   5643 C          72.4826   18.3128   99.0441 C.3     806      M_A    0.0000
   5644 C          73.3115   19.4180   99.6910 C.3     806      M_A    0.0000
   5645 O          74.4921   19.6658   98.9289 O.3     806      M_A    0.0000
   5646 H          73.1364   17.6569   98.4568 H       806      M_A    0.0000
   5647 H          71.7666   18.7403   98.3330 H       806      M_A    0.0000
   5648 H          73.6484   19.0990  100.6855 H       806      M_A    0.0000
   5649 H          72.7263   20.3363   99.8444 H       806      M_A    0.0000
   5650 C          74.4645   20.9359   98.3153 C.3     807      M_A    0.0000
   5651 C          75.3800   21.9286   99.0250 C.3     807      M_A    0.0000
   5652 O          76.0854   22.7237   98.0731 O.3     807      M_A    0.0000
   5653 H          74.7677   20.8397   97.2658 H       807      M_A    0.0000
   5654 H          73.4352   21.3117   98.2989 H       807      M_A    0.0000
   5655 H          76.1426   21.3884   99.6003 H       807      M_A    0.0000
   5656 H          74.8324   22.5503   99.7481 H       807      M_A    0.0000
   5657 C          77.0784   23.5178   98.6845 C.3     808      M_A    0.0000
   5658 C          76.9769   24.9794   98.2597 C.3     808      M_A    0.0000
   5659 O          78.2774   25.5529   98.1343 O.3     808      M_A    0.0000
   5660 H          76.9841   23.4430   99.7746 H       808      M_A    0.0000
   5661 H          78.0687   23.1178   98.4391 H       808      M_A    0.0000
   5662 H          76.4584   25.5586   99.0343 H       808      M_A    0.0000
   5663 H          76.3882   25.1013   97.3389 H       808      M_A    0.0000
   5664 C          78.3314   26.5123   97.1014 C.3     809      M_A    0.0000
   5665 C          77.1500   27.4757   97.1599 C.3     809      M_A    0.0000
   5666 O          77.5354   28.7655   96.6869 O.3     809      M_A    0.0000
   5667 H          79.2700   27.0746   97.1756 H       809      M_A    0.0000
   5668 H          78.3602   26.0036   96.1311 H       809      M_A    0.0000
   5669 H          76.8304   27.6124   98.2008 H       809      M_A    0.0000
   5670 H          76.2750   27.0886   96.6179 H       809      M_A    0.0000
   5671 C          78.1034   28.7042   95.3970 C.3     810      M_A    0.0000
   5672 C          78.9229   29.9508   95.0783 C.3     810      M_A    0.0000
   5673 O          80.0083   29.6249   94.2114 O.3     810      M_A    0.0000
   5674 H          78.7404   27.8147   95.3217 H       810      M_A    0.0000
   5675 H          77.3092   28.5703   94.6538 H       810      M_A    0.0000
   5676 H          79.3718   30.3480   95.9976 H       810      M_A    0.0000
   5677 H          78.3013   30.7585   94.6657 H       810      M_A    0.0000
   5678 C          79.5720   29.3790   92.8925 C.3     811      M_A    0.0000
   5679 C          80.7205   28.9461   91.9865 C.3     811      M_A    0.0000
   5680 O          80.2732   28.8299   90.6366 O.3     811      M_A    0.0000
   5681 H          78.7982   28.6019   92.9041 H       811      M_A    0.0000
   5682 H          79.0902   30.2786   92.4931 H       811      M_A    0.0000
   5683 H          81.0733   27.9494   92.2807 H       811      M_A    0.0000
   5684 H          81.5878   29.6168   92.0713 H       811      M_A    0.0000
   5685 C          80.9580   27.8107   89.9419 C.3     812      M_A    0.0000
   5686 C          82.1678   28.3530   89.1872 C.3     812      M_A    0.0000
   5687 O          81.9814   28.2109   87.7798 O.3     812      M_A    0.0000
   5688 H          81.2812   27.0401   90.6521 H       812      M_A    0.0000
   5689 H          80.2690   27.3135   89.2498 H       812      M_A    0.0000
   5690 H          83.0600   27.7660   89.4403 H       812      M_A    0.0000
   5691 H          82.3948   29.3926   89.4645 H       812      M_A    0.0000
   5692 C          82.5334   29.2943   87.0645 C.3     813      M_A    0.0000
   5693 C          82.1985   30.6329   87.7150 C.3     813      M_A    0.0000
   5694 O          82.8852   31.6940   87.0528 O.3     813      M_A    0.0000
   5695 H          83.6220   29.1748   87.0057 H       813      M_A    0.0000
   5696 H          82.1712   29.2723   86.0304 H       813      M_A    0.0000
   5697 H          82.5491   30.6412   88.7549 H       813      M_A    0.0000
   5698 H          81.1143   30.8124   87.7546 H       813      M_A    0.0000
   5699 C          83.1308   32.7814   87.9175 C.3     814      M_A    0.0000
   5700 C          82.6399   34.0989   87.3255 C.3     814      M_A    0.0000
   5701 O          82.4368   35.0633   88.3572 O.3     814      M_A    0.0000
   5702 H          82.6347   32.6012   88.8787 H       814      M_A    0.0000
   5703 H          84.2029   32.8387   88.1372 H       814      M_A    0.0000
   5704 H          81.6642   33.9521   86.8450 H       814      M_A    0.0000
   5705 H          83.3143   34.4761   86.5432 H       814      M_A    0.0000
   5706 C          82.4126   36.3792   87.8492 C.3     815      M_A    0.0000
   5707 C          81.7713   36.4416   86.4664 C.3     815      M_A    0.0000
   5708 O          81.1262   37.6995   86.2730 O.3     815      M_A    0.0000
   5709 H          81.8607   37.0264   88.5414 H       815      M_A    0.0000
   5710 H          83.4334   36.7762   87.8138 H       815      M_A    0.0000
   5711 H          80.9876   35.6778   86.3832 H       815      M_A    0.0000
   5712 H          82.4948   36.2283   85.6663 H       815      M_A    0.0000
   5713 C          81.6794   38.4125   85.1886 C.3     816      M_A    0.0000
   5714 C          81.3568   39.9016   85.2653 C.3     816      M_A    0.0000
   5715 O          82.4784   40.6764   84.8439 O.3     816      M_A    0.0000
   5716 H          82.7668   38.2708   85.1766 H       816      M_A    0.0000
   5717 H          81.3097   37.9908   84.2471 H       816      M_A    0.0000
   5718 H          81.1585   40.1879   86.3060 H       816      M_A    0.0000
   5719 H          80.4500   40.1568   84.6980 H       816      M_A    0.0000
   5720 C          82.1200   42.0126   84.5674 C.3     817      M_A    0.0000
   5721 C          83.3454   42.8965   84.3568 C.3     817      M_A    0.0000
   5722 O          83.1263   43.8021   83.2762 O.3     817      M_A    0.0000
   5723 H          81.4860   42.0417   83.6731 H       817      M_A    0.0000
   5724 H          81.5051   42.4030   85.3862 H       817      M_A    0.0000
   5725 H          84.2068   42.2792   84.0713 H       817      M_A    0.0000
   5726 H          83.6365   43.4239   85.2768 H       817      M_A    0.0000
   5727 C          84.3016   44.5016   82.9302 C.3     818      M_A    0.0000
   5728 C          85.3067   44.5242   84.0776 C.3     818      M_A    0.0000
   5729 O          86.6373   44.4048   83.5764 O.3     818      M_A    0.0000
   5730 H          84.7577   44.0338   82.0494 H       818      M_A    0.0000
   5731 H          84.0438   45.5235   82.6297 H       818      M_A    0.0000
   5732 H          85.1457   43.6585   84.7326 H       818      M_A    0.0000
   5733 H          85.1892   45.4153   84.7112 H       818      M_A    0.0000
   5734 C          86.8694   43.1391   82.9982 C.3     819      M_A    0.0000
   5735 C          88.2609   43.0445   82.3802 C.3     819      M_A    0.0000
   5736 O          88.2145   42.3071   81.1595 O.3     819      M_A    0.0000
   5737 H          86.7520   42.3623   83.7635 H       819      M_A    0.0000
   5738 H          86.1024   42.9363   82.2422 H       819      M_A    0.0000
   5739 H          88.9303   42.4895   83.0498 H       819      M_A    0.0000
   5740 H          88.7180   44.0347   82.2400 H       819      M_A    0.0000
   5741 C          89.1240   42.8112   80.2061 C.3     820      M_A    0.0000
   5742 C          90.0336   43.8819   80.8007 C.3     820      M_A    0.0000
   5743 O          91.0892   44.1979   79.8942 O.3     820      M_A    0.0000
   5744 H          89.7319   41.9878   79.8122 H       820      M_A    0.0000
   5745 H          88.5706   43.2140   79.3503 H       820      M_A    0.0000
   5746 H          90.5134   43.5010   81.7112 H       820      M_A    0.0000
   5747 H          89.4729   44.7790   81.1007 H       820      M_A    0.0000
   5748 C          90.7045   45.1860   78.9636 C.3     821      M_A    0.0000
   5749 C          91.7502   46.2904   78.8442 C.3     821      M_A    0.0000
   5750 O          92.3127   46.3039   77.5330 O.3     821      M_A    0.0000
   5751 H          90.5459   44.7207   77.9833 H       821      M_A    0.0000
   5752 H          89.7368   45.6081   79.2575 H       821      M_A    0.0000
   5753 H          92.5812   46.0942   79.5336 H       821      M_A    0.0000
   5754 H          91.3449   47.2738   79.1230 H       821      M_A    0.0000
   5755 C          93.4128   47.1823   77.4421 C.3     822      M_A    0.0000
   5756 C          94.6848   46.4561   77.0156 C.3     822      M_A    0.0000
   5757 O          95.6406   47.3842   76.5047 O.3     822      M_A    0.0000
   5758 H          93.1842   47.9788   76.7238 H       822      M_A    0.0000
   5759 H          93.5638   47.6801   78.4067 H       822      M_A    0.0000
   5760 H          94.4615   45.7616   76.1957 H       822      M_A    0.0000
   5761 H          95.1042   45.8467   77.8292 H       822      M_A    0.0000
   5762 C          96.9626   46.9174   76.6623 C.3     823      M_A    0.0000
   5763 C          97.9357   47.6492   75.7433 C.3     823      M_A    0.0000
   5764 O          99.2035   47.8010   76.3801 O.3     823      M_A    0.0000
   5765 H          97.2724   47.0474   77.7062 H       823      M_A    0.0000
   5766 H          96.9949   45.8390   76.4699 H       823      M_A    0.0000
   5767 H          97.5688   48.6638   75.5423 H       823      M_A    0.0000
   5768 H          98.0286   47.1563   74.7647 H       823      M_A    0.0000
   5769 C         100.0667   48.6362   75.6401 C.3     824      M_A    0.0000
   5770 C         101.4995   48.1124   75.6389 C.3     824      M_A    0.0000
   5771 O         102.2263   48.6529   74.5364 O.3     824      M_A    0.0000
   5772 H          99.7017   48.7146   74.6089 H       824      M_A    0.0000
   5773 H         100.0329   49.6519   76.0501 H       824      M_A    0.0000
   5774 H         101.4991   47.0234   75.5030 H       824      M_A    0.0000
   5775 H         102.0089   48.3029   76.5946 H       824      M_A    0.0000
   5776 C         101.8609   49.9894   74.2706 C.3     825      M_A    0.0000
   5777 C         103.0810   50.8768   74.0447 C.3     825      M_A    0.0000
   5778 O         102.7443   51.9828   73.2085 O.3     825      M_A    0.0000
   5779 H         101.2132   50.0206   73.3862 H       825      M_A    0.0000
   5780 H         101.2577   50.3754   75.1002 H       825      M_A    0.0000
   5781 H         103.8588   50.3143   73.5128 H       825      M_A    0.0000
   5782 H         103.5327   51.2057   74.9918 H       825      M_A    0.0000
   5783 C         102.0746   52.9977   73.9238 C.3     826      M_A    0.0000
   5784 C         102.5808   54.3864   73.5461 C.3     826      M_A    0.0000
   5785 O         101.4942   55.2215   73.1490 O.3     826      M_A    0.0000
   5786 H         100.9977   52.9315   73.7273 H       826      M_A    0.0000
   5787 H         102.1960   52.8278   74.9996 H       826      M_A    0.0000
   5788 H         103.2490   54.3172   72.6782 H       826      M_A    0.0000
   5789 H         103.1714   54.8436   74.3531 H       826      M_A    0.0000
   5790 C         101.8316   56.0339   72.0461 C.3     827      M_A    0.0000
   5791 C         103.1419   56.7817   72.2722 C.3     827      M_A    0.0000
   5792 O         103.3611   57.7290   71.2280 O.3     827      M_A    0.0000
   5793 H         101.9124   55.4115   71.1468 H       827      M_A    0.0000
   5794 H         101.0180   56.7417   71.8510 H       827      M_A    0.0000
   5795 H         103.9844   56.0796   72.2327 H       827      M_A    0.0000
   5796 H         103.1813   57.2538   73.2645 H       827      M_A    0.0000
   5797 C         103.1360   59.0521   71.6630 C.3     828      M_A    0.0000
   5798 C         104.0295   60.0492   70.9318 C.3     828      M_A    0.0000
   5799 O         103.4770   61.3625   71.0089 O.3     828      M_A    0.0000
   5800 H         102.0831   59.3137   71.5029 H       828      M_A    0.0000
   5801 H         103.3014   59.1144   72.7446 H       828      M_A    0.0000
   5802 H         104.0759   59.7970   69.8648 H       828      M_A    0.0000
   5803 H         105.0654   60.0216   71.2997 H       828      M_A    0.0000
   5804 C         104.4467   62.3561   70.7583 C.3     829      M_A    0.0000
   5805 C         105.4587   61.9089   69.7081 C.3     829      M_A    0.0000
   5806 O         105.8980   63.0237   68.9335 O.3     829      M_A    0.0000
   5807 H         103.9490   63.2742   70.4237 H       829      M_A    0.0000
   5808 H         104.9569   62.6131   71.6936 H       829      M_A    0.0000
   5809 H         104.9843   61.2130   69.0045 H       829      M_A    0.0000
   5810 H         106.3040   61.3658   70.1549 H       829      M_A    0.0000
   5811 C         106.3467   64.0851   69.7474 C.3     830      M_A    0.0000
   5812 C         106.8948   65.2427   68.9188 C.3     830      M_A    0.0000
   5813 O         106.3640   66.4829   69.3835 O.3     830      M_A    0.0000
   5814 H         105.5186   64.4390   70.3733 H       830      M_A    0.0000
   5815 H         107.1121   63.7165   70.4397 H       830      M_A    0.0000
   5816 H         106.5712   65.1413   67.8750 H       830      M_A    0.0000
   5817 H         107.9943   65.2524   68.9003 H       830      M_A    0.0000
   5818 C         107.1261   67.5820   68.9346 C.3     831      M_A    0.0000
   5819 C         106.3636   68.8958   69.0743 C.3     831      M_A    0.0000
   5820 O         107.2552   69.9546   69.4205 O.3     831      M_A    0.0000
   5821 H         108.0603   67.6350   69.5066 H       831      M_A    0.0000
   5822 H         107.4198   67.4213   67.8911 H       831      M_A    0.0000
   5823 H         105.6396   68.8222   69.8958 H       831      M_A    0.0000
   5824 H         105.7817   69.1329   68.1719 H       831      M_A    0.0000
   5825 C         106.7318   71.2175   69.0719 C.3     832      M_A    0.0000
   5826 C         107.7198   72.3419   69.3666 C.3     832      M_A    0.0000
   5827 O         108.0474   73.0437   68.1682 O.3     832      M_A    0.0000
   5828 H         106.4739   71.2230   68.0060 H       832      M_A    0.0000
   5829 H         105.7923   71.3853   69.6106 H       832      M_A    0.0000
   5830 H         108.6609   71.9228   69.7449 H       832      M_A    0.0000
   5831 H         107.3499   73.0216   70.1478 H       832      M_A    0.0000
   5832 C         108.5808   74.3218   68.4368 C.3     833      M_A    0.0000
   5833 C         110.0602   74.2534   68.8030 C.3     833      M_A    0.0000
   5834 O         110.7640   75.3600   68.2408 O.3     833      M_A    0.0000
   5835 H         108.4476   74.9639   67.5578 H       833      M_A    0.0000
   5836 H         108.0100   74.7938   69.2446 H       833      M_A    0.0000
   5837 H         110.5107   73.3506   68.3712 H       833      M_A    0.0000
   5838 H         110.2132   74.1839   69.8897 H       833      M_A    0.0000
   5839 C         111.0524   76.3456   69.2080 C.3     834      M_A    0.0000
   5840 C         111.6960   77.5805   68.5850 C.3     834      M_A    0.0000
   5841 O         110.9258   78.7452   68.8787 O.3     834      M_A    0.0000
   5842 H         110.1274   76.6318   69.7231 H       834      M_A    0.0000
   5843 H         111.7076   75.9220   69.9776 H       834      M_A    0.0000
   5844 H         111.7056   77.4855   67.4917 H       834      M_A    0.0000
   5845 H         112.7450   77.6984   68.8927 H       834      M_A    0.0000
   5846 C         111.2242   79.8078   68.0000 C.3     835      M_A    0.0000
   5847 C         112.7186   79.8995   67.7077 C.3     835      M_A    0.0000
   5848 O         112.9632   80.8254   66.6500 O.3     835      M_A    0.0000
   5849 H         110.6725   79.6704   67.0622 H       835      M_A    0.0000
   5850 H         110.8615   80.7491   68.4283 H       835      M_A    0.0000
   5851 H         113.0914   78.9281   67.3587 H       835      M_A    0.0000
   5852 H         113.3003   80.1469   68.6074 H       835      M_A    0.0000
   5853 C         112.4136   82.0952   66.9256 C.3     836      M_A    0.0000
   5854 C         112.5023   83.0254   65.7198 C.3     836      M_A    0.0000
   5855 O         111.6632   84.1642   65.9066 O.3     836      M_A    0.0000
   5856 H         111.3653   81.9805   67.2267 H       836      M_A    0.0000
   5857 H         112.9282   82.5373   67.7862 H       836      M_A    0.0000
   5858 H         112.1300   82.5125   64.8238 H       836      M_A    0.0000
   5859 H         113.5395   83.3164   65.4989 H       836      M_A    0.0000
   5860 C         112.3589   85.3715   65.6859 C.3     837      M_A    0.0000
   5861 C         111.4761   86.4207   65.0172 C.3     837      M_A    0.0000
   5862 O         111.9272   87.7338   65.3460 O.3     837      M_A    0.0000
   5863 H         112.7306   85.7576   66.6427 H       837      M_A    0.0000
   5864 H         113.2469   85.1752   65.0743 H       837      M_A    0.0000
   5865 H         110.4499   86.3434   65.3982 H       837      M_A    0.0000
   5866 H         111.4122   86.2732   63.9294 H       837      M_A    0.0000
   5867 C         113.1661   88.0311   64.7401 C.3     838      M_A    0.0000
   5868 C         113.4493   89.5300   64.7339 C.3     838      M_A    0.0000
   5869 O         114.6760   89.8022   64.0580 O.3     838      M_A    0.0000
   5870 H         113.9675   87.5064   65.2739 H       838      M_A    0.0000
   5871 H         113.1766   87.6373   63.7174 H       838      M_A    0.0000
   5872 H         113.5781   89.8902   65.7625 H       838      M_A    0.0000
   5873 H         112.6143   90.1057   64.3088 H       838      M_A    0.0000
   5874 C         114.6977   91.1027   63.5116 C.3     839      M_A    0.0000
   5875 C         114.0790   92.1262   64.4586 C.3     839      M_A    0.0000
   5876 O         114.1350   93.4319   63.8862 O.3     839      M_A    0.0000
   5877 H         115.7331   91.3861   63.2875 H       839      M_A    0.0000
   5878 H         114.1697   91.1046   62.5512 H       839      M_A    0.0000
   5879 H         114.6590   92.1729   65.3891 H       839      M_A    0.0000
   5880 H         113.0541   91.8529   64.7486 H       839      M_A    0.0000
   5881 C         112.9954   94.1975   64.2109 C.3     840      M_A    0.0000
   5882 C         112.6895   95.2411   63.1411 C.3     840      M_A    0.0000
   5883 O         111.3662   95.7489   63.3048 O.3     840      M_A    0.0000
   5884 H         112.1327   93.5317   64.3341 H       840      M_A    0.0000
   5885 H         113.1447   94.6810   65.1830 H       840      M_A    0.0000
   5886 H         112.7205   94.7774   62.1469 H       840      M_A    0.0000
   5887 H         113.4360   96.0484   63.1272 H       840      M_A    0.0000
   5888 C         111.3245   96.8224   64.2192 C.3     841      M_A    0.0000
   5889 C         112.0492   98.0529   63.6826 C.3     841      M_A    0.0000
   5890 O         111.1173   98.9693   63.1102 O.3     841      M_A    0.0000
   5891 H         110.2798   97.0751   64.4366 H       841      M_A    0.0000
   5892 H         111.7636   96.5077   65.1727 H       841      M_A    0.0000
   5893 H         112.7311   97.7618   62.8735 H       841      M_A    0.0000
   5894 H         112.6715   98.5330   64.4516 H       841      M_A    0.0000
   5895 C         110.5723   99.8384   64.0787 C.3     842      M_A    0.0000
   5896 C         110.3207  101.2324   63.5124 C.3     842      M_A    0.0000
   5897 O         108.9374  101.5678   63.6115 O.3     842      M_A    0.0000
   5898 H         109.6324   99.4185   64.4566 H       842      M_A    0.0000
   5899 H         111.2465   99.8936   64.9409 H       842      M_A    0.0000
   5900 H         110.5661  101.2512   62.4429 H       842      M_A    0.0000
   5901 H         110.9584  101.9918   63.9877 H       842      M_A    0.0000
   5902 C         108.7458  102.9479   63.8327 C.3     843      M_A    0.0000
   5903 C         107.5116  103.4729   63.1060 C.3     843      M_A    0.0000
   5904 O         107.0252  104.6547   63.7405 O.3     843      M_A    0.0000
   5905 H         108.6471  103.1337   64.9090 H       843      M_A    0.0000
   5906 H         109.6386  103.4969   63.5124 H       843      M_A    0.0000
   5907 H         106.7009  102.7356   63.1658 H       843      M_A    0.0000
   5908 H         107.7014  103.6350   62.0351 H       843      M_A    0.0000
   5909 C         107.8883  105.7524   63.5394 C.3     844      M_A    0.0000
   5910 C         107.2325  106.8429   62.6979 C.3     844      M_A    0.0000
   5911 O         107.8179  108.1122   62.9840 O.3     844      M_A    0.0000
   5912 H         108.1853  106.1647   64.5112 H       844      M_A    0.0000
   5913 H         108.8129  105.4078   63.0625 H       844      M_A    0.0000
   5914 H         106.1700  106.9281   62.9591 H       844      M_A    0.0000
   5915 H         107.2675  106.6117   61.6235 H       844      M_A    0.0000
   5916 C         107.9874  108.8876   61.8176 C.3     845      M_A    0.0000
   5917 C         107.8630  110.3804   62.1059 C.3     845      M_A    0.0000
   5918 O         108.5064  111.1403   61.0838 O.3     845      M_A    0.0000
   5919 H         108.9709  108.6770   61.3804 H       845      M_A    0.0000
   5920 H         107.2511  108.5823   61.0655 H       845      M_A    0.0000
   5921 H         108.3802  110.6245   63.0426 H       845      M_A    0.0000
   5922 H         106.8162  110.6880   62.2434 H       845      M_A    0.0000
   5923 C         108.5770  112.5103   61.4131 C.3     846      M_A    0.0000
   5924 C         107.1977  113.0973   61.6961 C.3     846      M_A    0.0000
   5925 O         107.2786  114.0875   62.7203 O.3     846      M_A    0.0000
   5926 H         109.2208  112.6408   62.2913 H       846      M_A    0.0000
   5927 H         109.0638  113.0575   60.5979 H       846      M_A    0.0000
   5928 H         106.5293  112.3146   62.0769 H       846      M_A    0.0000
   5929 H         106.7226  113.4914   60.7861 H       846      M_A    0.0000
   5930 C         108.5312  114.7365   62.7260 C.3     847      M_A    0.0000
   5931 C         108.3840  116.2539   62.6712 C.3     847      M_A    0.0000
   5932 O         108.9329  116.8501   63.8455 O.3     847      M_A    0.0000
   5933 H         109.0844  114.4519   63.6291 H       847      M_A    0.0000
   5934 H         109.1308  114.3813   61.8802 H       847      M_A    0.0000
   5935 H         107.3209  116.5260   62.6560 H       847      M_A    0.0000
   5936 H         108.8231  116.6780   61.7566 H       847      M_A    0.0000
   5937 C         109.4039  118.1572   63.6003 C.3     848      M_A    0.0000
   5938 C         108.2754  119.1830   63.6373 C.3     848      M_A    0.0000
   5939 O         108.7297  120.4022   64.2228 O.3     848      M_A    0.0000
   5940 H         110.1630  118.4167   64.3480 H       848      M_A    0.0000
   5941 H         109.9133  118.1862   62.6304 H       848      M_A    0.0000
   5942 H         107.4607  118.8194   64.2765 H       848      M_A    0.0000
   5943 H         107.8357  119.3483   62.6430 H       848      M_A    0.0000
   5944 C         107.8459  121.4709   63.9638 C.3     849      M_A    0.0000
   5945 C         107.7901  122.4555   65.1277 C.3     849      M_A    0.0000
   5946 O         108.9312  123.3119   65.1106 O.3     849      M_A    0.0000
   5947 H         108.1636  121.9935   63.0535 H       849      M_A    0.0000
   5948 H         106.8462  121.0753   63.7515 H       849      M_A    0.0000
   5949 H         107.8281  121.9111   66.0799 H       849      M_A    0.0000
   5950 H         106.8517  123.0286   65.1384 H       849      M_A    0.0000
   5951 C         109.7980  123.0112   64.0388 C.3     850      M_A    0.0000
   5952 C         110.3206  124.2738   63.3607 C.3     850      M_A    0.0000
   5953 O         111.5830  124.6481   63.9105 O.3     850      M_A    0.0000
   5954 H         110.6409  122.4152   64.4087 H       850      M_A    0.0000
   5955 H         109.2757  122.3776   63.3131 H       850      M_A    0.0000
   5956 H         109.6394  125.1119   63.5555 H       850      M_A    0.0000
   5957 H         110.3693  124.1648   62.2676 H       850      M_A    0.0000
   5958 C         111.5299  125.9115   64.5362 C.3     851      M_A    0.0000
   5959 C         111.2451  127.0280   63.5365 C.3     851      M_A    0.0000
   5960 O         110.6163  128.1309   64.1877 O.3     851      M_A    0.0000
   5961 H         110.7529  125.9020   65.3100 H       851      M_A    0.0000
   5962 H         112.4743  126.1003   65.0591 H       851      M_A    0.0000
   5963 H         110.5376  126.6761   62.7748 H       851      M_A    0.0000
   5964 H         112.1508  127.3378   62.9952 H       851      M_A    0.0000
   5965 C         109.4371  128.5303   63.5242 C.3     852      M_A    0.0000
   5966 C         108.3360  127.4812   63.6437 C.3     852      M_A    0.0000
   5967 O         107.0830  128.1041   63.9225 O.3     852      M_A    0.0000
   5968 H         109.0877  129.4813   63.9437 H       852      M_A    0.0000
   5969 H         109.6604  128.7295   62.4699 H       852      M_A    0.0000
   5970 H         108.5444  126.8158   64.4912 H       852      M_A    0.0000
   5971 H         108.2812  126.8377   62.7537 H       852      M_A    0.0000
   5972 C         106.7526  129.0764   62.9551 C.3     853      M_A    0.0000
   5973 C         106.5701  130.4569   63.5779 C.3     853      M_A    0.0000
   5974 O         106.9010  131.4760   62.6356 O.3     853      M_A    0.0000
   5975 H         107.5419  129.1161   62.1948 H       853      M_A    0.0000
   5976 H         105.8409  128.7728   62.4282 H       853      M_A    0.0000
   5977 H         107.2617  130.5810   64.4210 H       853      M_A    0.0000
   5978 H         105.5587  130.5943   63.9871 H       853      M_A    0.0000
   5979 C         107.5777  132.5543   63.2436 C.3     854      M_A    0.0000
   5980 C         107.5897  133.7917   62.3516 C.3     854      M_A    0.0000
   5981 O         107.7894  134.9679   63.1343 O.3     854      M_A    0.0000
   5982 H         107.0966  132.7933   64.1997 H       854      M_A    0.0000
   5983 H         108.6021  132.2515   63.4886 H       854      M_A    0.0000
   5984 H         106.6142  133.9094   61.8626 H       854      M_A    0.0000
   5985 H         108.3309  133.7104   61.5434 H       854      M_A    0.0000
   5986 C         108.1523  136.0741   62.3375 C.3     855      M_A    0.0000
   5987 C         108.3114  137.3436   63.1683 C.3     855      M_A    0.0000
   5988 O         109.1325  138.2878   62.4826 O.3     855      M_A    0.0000
   5989 H         109.0916  135.8544   61.8159 H       855      M_A    0.0000
   5990 H         107.4001  136.2232   61.5546 H       855      M_A    0.0000
   5991 H         108.8278  137.1125   64.1087 H       855      M_A    0.0000
   5992 H         107.3406  137.7771   63.4491 H       855      M_A    0.0000
   5993 C         108.3884  139.0684   61.5729 C.3     856      M_A    0.0000
   5994 C         109.2625  140.0950   60.8593 C.3     856      M_A    0.0000
   5995 O         108.7777  140.3290   59.5379 O.3     856      M_A    0.0000
   5996 H         107.9125  138.4119   60.8345 H       856      M_A    0.0000
   5997 H         107.5704  139.5682   62.1040 H       856      M_A    0.0000
   5998 H         110.2823  139.7049   60.7484 H       856      M_A    0.0000
   5999 H         109.3513  141.0298   61.4314 H       856      M_A    0.0000
   6000 C         109.4581  141.3930   58.9093 C.3     857      M_A    0.0000
   6001 C         109.2526  141.3833   57.3977 C.3     857      M_A    0.0000
   6002 O         109.2293  142.7165   56.8898 O.3     857      M_A    0.0000
   6003 H         109.1059  142.3455   59.3234 H       857      M_A    0.0000
   6004 H         110.5260  141.3363   59.1488 H       857      M_A    0.0000
   6005 H         108.2760  140.9448   57.1561 H       857      M_A    0.0000
   6006 H         110.0029  140.7653   56.8835 H       857      M_A    0.0000
   6007 C         109.9112  142.8221   55.6593 C.3     858      M_A    0.0000
   6008 C         109.5029  144.0747   54.8902 C.3     858      M_A    0.0000
   6009 O         110.3989  144.3065   53.8043 O.3     858      M_A    0.0000
   6010 H         110.9924  142.8377   55.8424 H       858      M_A    0.0000
   6011 H         109.7200  141.9265   55.0573 H       858      M_A    0.0000
   6012 H         109.5759  144.9542   55.5426 H       858      M_A    0.0000
   6013 H         108.4575  144.0286   54.5522 H       858      M_A    0.0000
   6014 C         110.5064  143.1798   52.9620 C.3     859      M_A    0.0000
   6015 C         109.1398  142.5929   52.6227 C.3     859      M_A    0.0000
   6016 O         108.8201  142.8349   51.2533 O.3     859      M_A    0.0000
   6017 H         111.0255  143.4638   52.0387 H       859      M_A    0.0000
   6018 H         111.1371  142.4232   53.4424 H       859      M_A    0.0000
   6019 H         108.3614  143.0925   53.2134 H       859      M_A    0.0000
   6020 H         109.0766  141.5238   52.8722 H       859      M_A    0.0000
   6021 C         109.1309  141.7268   50.4373 C.3     860      M_A    0.0000
   6022 C         109.7860  142.1531   49.1273 C.3     860      M_A    0.0000
   6023 O         109.1734  141.4868   48.0243 O.3     860      M_A    0.0000
   6024 H         109.8008  141.0504   50.9818 H       860      M_A    0.0000
   6025 H         108.2191  141.1524   50.2379 H       860      M_A    0.0000
   6026 H         110.8412  141.8515   49.1216 H       860      M_A    0.0000
   6027 H         109.7776  143.2451   48.9983 H       860      M_A    0.0000
   6028 C         109.4416  142.1382   46.8020 C.3     861      M_A    0.0000
   6029 C         110.8341  142.7610   46.7849 C.3     861      M_A    0.0000
   6030 O         111.7200  141.9780   45.9861 O.3     861      M_A    0.0000
   6031 H         109.3487  141.4197   45.9787 H       861      M_A    0.0000
   6032 H         108.6794  142.9046   46.6212 H       861      M_A    0.0000
   6033 H         111.2547  142.7637   47.7985 H       861      M_A    0.0000
   6034 H         110.8123  143.8107   46.4582 H       861      M_A    0.0000
   6035 C         112.9711  142.6079   45.8175 C.3     862      M_A    0.0000
   6036 C         113.8866  141.8120   44.8926 C.3     862      M_A    0.0000
   6037 O         114.5899  142.6884   44.0132 O.3     862      M_A    0.0000
   6038 H         112.8196  143.6146   45.4098 H       862      M_A    0.0000
   6039 H         113.4453  142.7466   46.7956 H       862      M_A    0.0000
   6040 H         113.2884  141.1500   44.2537 H       862      M_A    0.0000
   6041 H         114.5733  141.1608   45.4526 H       862      M_A    0.0000
   6042 C         113.7563  143.1857   42.9894 C.3     863      M_A    0.0000
   6043 C         114.0962  144.6293   42.6323 C.3     863      M_A    0.0000
   6044 O         114.6798  144.6964   41.3320 O.3     863      M_A    0.0000
   6045 H         113.8554  142.5524   42.0996 H       863      M_A    0.0000
   6046 H         112.7084  143.1070   43.3006 H       863      M_A    0.0000
   6047 H         114.8499  145.0190   43.3284 H       863      M_A    0.0000
   6048 H         113.2235  145.2925   42.7211 H       863      M_A    0.0000
   6049 C         115.3405  145.9240   41.1152 C.3     864      M_A    0.0000
   6050 C         116.6455  146.0121   41.9003 C.3     864      M_A    0.0000
   6051 O         117.6137  146.7674   41.1737 O.3     864      M_A    0.0000
   6052 H         115.5453  146.0429   40.0445 H       864      M_A    0.0000
   6053 H         114.6750  146.7506   41.3888 H       864      M_A    0.0000
   6054 H         117.0718  145.0092   42.0302 H       864      M_A    0.0000
   6055 H         116.4917  146.4142   42.9121 H       864      M_A    0.0000
   6056 C         117.3143  148.1461   41.1762 C.3     865      M_A    0.0000
   6057 C         118.3188  148.9460   40.3526 C.3     865      M_A    0.0000
   6058 O         117.6888  150.0855   39.7687 O.3     865      M_A    0.0000
   6059 H         116.3044  148.2999   40.7773 H       865      M_A    0.0000
   6060 H         117.2901  148.5131   42.2085 H       865      M_A    0.0000
   6061 H         118.6871  148.3364   39.5176 H       865      M_A    0.0000
   6062 H         119.2036  149.2277   40.9415 H       865      M_A    0.0000
   6063 C         118.5354  150.7408   38.8500 C.3     866      M_A    0.0000
   6064 C         117.8141  151.8690   38.1192 C.3     866      M_A    0.0000
   6065 O         118.6199  152.3660   37.0516 O.3     866      M_A    0.0000
   6066 H         119.4068  151.1429   39.3808 H       866      M_A    0.0000
   6067 H         118.9291  150.0125   38.1319 H       866      M_A    0.0000
   6068 H         117.6527  152.7132   38.8017 H       866      M_A    0.0000
   6069 H         116.8181  151.5625   37.7682 H       866      M_A    0.0000
   6070 C         118.0698  153.5308   36.4763 C.3     867      M_A    0.0000
   6071 C         116.5732  153.6455   36.7485 C.3     867      M_A    0.0000
   6072 O         116.0854  154.9166   36.3217 O.3     867      M_A    0.0000
   6073 H         118.5860  154.4123   36.8752 H       867      M_A    0.0000
   6074 H         118.2617  153.5312   35.3973 H       867      M_A    0.0000
   6075 H         116.3845  153.5901   37.8282 H       867      M_A    0.0000
   6076 H         116.0070  152.8193   36.2946 H       867      M_A    0.0000
   6077 C         114.7466  154.8454   35.8827 C.3     868      M_A    0.0000
   6078 C         114.1833  156.2245   35.5539 C.3     868      M_A    0.0000
   6079 O         112.7917  156.1349   35.2518 O.3     868      M_A    0.0000
   6080 H         114.6878  154.2020   34.9966 H       868      M_A    0.0000
   6081 H         114.1355  154.3577   36.6508 H       868      M_A    0.0000
   6082 H         114.6689  156.6213   34.6533 H       868      M_A    0.0000
   6083 H         114.3796  156.9517   36.3549 H       868      M_A    0.0000
   6084 C         112.1575  157.3933   35.3179 C.3     869      M_A    0.0000
   6085 C         113.1557  158.5392   35.1843 C.3     869      M_A    0.0000
   6086 O         112.5439  159.6609   34.5493 O.3     869      M_A    0.0000
   6087 H         111.4058  157.4642   34.5226 H       869      M_A    0.0000
   6088 H         111.6070  157.4761   36.2619 H       869      M_A    0.0000
   6089 H         113.9886  158.2357   34.5373 H       869      M_A    0.0000
   6090 H         113.6015  158.8126   36.1516 H       869      M_A    0.0000
   6091 C         113.1740  160.8729   34.9023 C.3     870      M_A    0.0000
   6092 C         113.7745  161.5747   33.6882 C.3     870      M_A    0.0000
   6093 O         113.7376  162.9903   33.8627 O.3     870      M_A    0.0000
   6094 H         112.4457  161.5337   35.3877 H       870      M_A    0.0000
   6095 H         113.9497  160.6770   35.6512 H       870      M_A    0.0000
   6096 H         113.1727  161.3587   32.7962 H       870      M_A    0.0000
   6097 H         114.7910  161.2185   33.4670 H       870      M_A    0.0000
   6098 C         114.8526  163.6218   33.2725 C.3     871      M_A    0.0000
   6099 C         114.6533  165.1295   33.1532 C.3     871      M_A    0.0000
   6100 O         115.8621  165.8182   33.4700 O.3     871      M_A    0.0000
   6101 H         115.7476  163.4142   33.8713 H       871      M_A    0.0000
   6102 H         115.0412  163.1834   32.2859 H       871      M_A    0.0000
   6103 H         113.9066  165.4666   33.8835 H       871      M_A    0.0000
   6104 H         114.2683  165.4176   32.1643 H       871      M_A    0.0000
   6105 C         115.8129  167.1729   33.0795 C.3     872      M_A    0.0000
   6106 C         114.4052  167.5943   32.6697 C.3     872      M_A    0.0000
   6107 O         114.1824  168.9663   32.9922 O.3     872      M_A    0.0000
   6108 H         116.1605  167.8031   33.9070 H       872      M_A    0.0000
   6109 H         116.5158  167.3417   32.2558 H       872      M_A    0.0000
   6110 H         113.6628  167.0200   33.2384 H       872      M_A    0.0000
   6111 H         114.2057  167.3885   31.6081 H       872      M_A    0.0000
   6112 C         114.6284  169.8263   31.9666 C.3     873      M_A    0.0000
   6113 C         115.0338  171.1933   32.5090 C.3     873      M_A    0.0000
   6114 O         115.2927  172.0978   31.4364 O.3     873      M_A    0.0000
   6115 H         115.4801  169.3666   31.4509 H       873      M_A    0.0000
   6116 H         113.8411  169.9343   31.2120 H       873      M_A    0.0000
   6117 H         115.9713  171.1084   33.0732 H       873      M_A    0.0000
   6118 H         114.2886  171.5963   33.2100 H       873      M_A    0.0000
   6119 C         115.3698  173.4339   31.8826 C.3     874      M_A    0.0000
   6120 C         114.0228  173.9420   32.3871 C.3     874      M_A    0.0000
   6121 O         114.1648  175.2381   32.9665 O.3     874      M_A    0.0000
   6122 H         116.1154  173.5077   32.6834 H       874      M_A    0.0000
   6123 H         115.7365  174.0704   31.0693 H       874      M_A    0.0000
   6124 H         113.6515  173.2869   33.1855 H       874      M_A    0.0000
   6125 H         113.2563  173.9307   31.5987 H       874      M_A    0.0000
   6126 C         115.1781  175.9885   32.3337 C.3     875      M_A    0.0000
   6127 C         114.8768  177.4837   32.3597 C.3     875      M_A    0.0000
   6128 O         116.0823  178.2321   32.5101 O.3     875      M_A    0.0000
   6129 H         116.1369  175.7967   32.8303 H       875      M_A    0.0000
   6130 H         115.2986  175.6423   31.3009 H       875      M_A    0.0000
   6131 H         114.2544  177.7244   33.2310 H       875      M_A    0.0000
   6132 H         114.3063  177.8048   31.4762 H       875      M_A    0.0000
   6133 C         115.9552  179.5413   32.0000 C.3     876      M_A    0.0000
   6134 C         114.5892  180.1427   32.3153 C.3     876      M_A    0.0000
   6135 O         114.7385  181.3854   33.0005 O.3     876      M_A    0.0000
   6136 H         116.7440  180.1749   32.4232 H       876      M_A    0.0000
   6137 H         116.1256  179.5299   30.9174 H       876      M_A    0.0000
   6138 H         114.0373  179.4809   32.9948 H       876      M_A    0.0000
   6139 H         113.9668  180.2471   31.4148 H       876      M_A    0.0000
   6140 C         115.6943  182.2166   32.3792 C.3     877      M_A    0.0000
   6141 C         115.4244  183.6931   32.6516 C.3     877      M_A    0.0000
   6142 O         116.6238  184.4529   32.5100 O.3     877      M_A    0.0000
   6143 H         116.6957  181.9520   32.7394 H       877      M_A    0.0000
   6144 H         115.7007  182.0233   31.3005 H       877      M_A    0.0000
   6145 H         115.0957  183.8275   33.6900 H       877      M_A    0.0000
   6146 H         114.6158  184.0880   32.0195 H       877      M_A    0.0000
   6147 C         116.8430  184.8445   31.1725 C.3     878      M_A    0.0000
   6148 C         117.9675  185.8690   31.0585 C.3     878      M_A    0.0000
   6149 O         118.3253  186.0656   29.6913 O.3     878      M_A    0.0000
   6150 H         117.0862  183.9611   30.5698 H       878      M_A    0.0000
   6151 H         115.9149  185.2495   30.7533 H       878      M_A    0.0000
   6152 H         118.8677  185.4933   31.5613 H       878      M_A    0.0000
   6153 H         117.7126  186.8177   31.5526 H       878      M_A    0.0000
   6154 C         118.6200  187.4172   29.4143 C.3     879      M_A    0.0000
   6155 C         119.6031  188.0017   30.4239 C.3     879      M_A    0.0000
   6156 O         120.4296  188.9847   29.8022 O.3     879      M_A    0.0000
   6157 H         119.0371  187.4990   28.4034 H       879      M_A    0.0000
   6158 H         117.6916  187.9995   29.4058 H       879      M_A    0.0000
   6159 H         120.2784  187.2160   30.7858 H       879      M_A    0.0000
   6160 H         119.0929  188.4020   31.3120 H       879      M_A    0.0000
   6161 C         119.6690  190.0307   29.2387 C.3     880      M_A    0.0000
   6162 C         120.5548  191.0942   28.5972 C.3     880      M_A    0.0000
   6163 O         119.8484  191.7698   27.5578 O.3     880      M_A    0.0000
   6164 H         118.9841  189.6189   28.4877 H       880      M_A    0.0000
   6165 H         119.0348  190.4791   30.0118 H       880      M_A    0.0000
   6166 H         121.4229  190.6202   28.1216 H       880      M_A    0.0000
   6167 H         120.9572  191.7984   29.3397 H       880      M_A    0.0000
   6168 C         120.7001  192.5959   26.7945 C.3     881      M_A    0.0000
   6169 C         122.1514  192.4918   27.2529 C.3     881      M_A    0.0000
   6170 O         123.0196  193.1035   26.3001 O.3     881      M_A    0.0000
   6171 H         120.6263  192.3161   25.7367 H       881      M_A    0.0000
   6172 H         120.3546  193.6340   26.8569 H       881      M_A    0.0000
   6173 H         122.4506  191.4375   27.3097 H       881      M_A    0.0000
   6174 H         122.2963  192.9073   28.2607 H       881      M_A    0.0000
   6175 C         124.3679  192.7470   26.5129 C.3     882      M_A    0.0000
   6176 C         125.0143  193.5973   27.6020 C.3     882      M_A    0.0000
   6177 O         126.3216  194.0073   27.2035 O.3     882      M_A    0.0000
   6178 H         124.4249  191.6873   26.7897 H       882      M_A    0.0000
   6179 H         124.9243  192.8439   25.5737 H       882      M_A    0.0000
   6180 H         125.1435  193.0011   28.5143 H       882      M_A    0.0000
   6181 H         124.3866  194.4557   27.8820 H       882      M_A    0.0000
   6182 C         126.2891  194.8171   26.0487 C.3     883      M_A    0.0000
   6183 C         126.7139  196.2511   26.3495 C.3     883      M_A    0.0000
   6184 O         127.8464  196.6110   25.5596 O.3     883      M_A    0.0000
   6185 H         126.9499  194.3890   25.2853 H       883      M_A    0.0000
   6186 H         125.2811  194.8008   25.6190 H       883      M_A    0.0000
   6187 H         127.0301  196.3353   27.3971 H       883      M_A    0.0000
   6188 H         125.8853  196.9624   26.2203 H       883      M_A    0.0000
   6189 C         128.0654  198.0047   25.5594 C.3     884      M_A    0.0000
   6190 C         127.2479  198.7075   26.6387 C.3     884      M_A    0.0000
   6191 O         127.6228  200.0810   26.7320 O.3     884      M_A    0.0000
   6192 H         129.1322  198.2054   25.7153 H       884      M_A    0.0000
   6193 H         127.8228  198.4128   24.5716 H       884      M_A    0.0000
   6194 H         127.4622  198.2626   27.6188 H       884      M_A    0.0000
   6195 H         126.1663  198.5912   26.4780 H       884      M_A    0.0000
   6196 C         126.5725  200.8797   27.2314 C.3     885      M_A    0.0000
   6197 C         126.1259  200.4273   28.6181 C.3     885      M_A    0.0000
   6198 O         126.0835  201.5369   29.5141 O.3     885      M_A    0.0000
   6199 H         126.8985  201.9260   27.2718 H       885      M_A    0.0000
   6200 H         125.7290  200.8532   26.5322 H       885      M_A    0.0000
   6201 H         126.8571  199.7229   29.0349 H       885      M_A    0.0000
   6202 H         125.1658  199.8920   28.5879 H       885      M_A    0.0000
   6203 C         127.3069  202.2391   29.5394 C.3     886      M_A    0.0000
   6204 C         127.5859  202.9401   28.2135 C.3     886      M_A    0.0000
   6205 O         127.1512  204.2980   28.2671 O.3     886      M_A    0.0000
   6206 H         127.2860  202.9775   30.3499 H       886      M_A    0.0000
   6207 H         128.1208  201.5467   29.7827 H       886      M_A    0.0000
   6208 H         127.0093  202.4637   27.4104 H       886      M_A    0.0000
   6209 H         128.6430  202.8628   27.9207 H       886      M_A    0.0000
   6210 C         127.2181  204.9215   27.0034 C.3     887      M_A    0.0000
   6211 C         128.6231  204.8566   26.4127 C.3     887      M_A    0.0000
   6212 O         128.5740  204.4074   25.0593 O.3     887      M_A    0.0000
   6213 H         126.5084  204.4384   26.3211 H       887      M_A    0.0000
   6214 H         126.8901  205.9634   27.0920 H       887      M_A    0.0000
   6215 H         129.2249  204.1198   26.9599 H       887      M_A    0.0000
   6216 H         129.1535  205.8156   26.5039 H       887      M_A    0.0000
   6217 C         128.1242  203.0736   24.9642 C.3     888      M_A    0.0000
   6218 C         128.5600  202.4199   23.6566 C.3     888      M_A    0.0000
   6219 O         128.1072  201.0680   23.6007 O.3     888      M_A    0.0000
   6220 H         128.5129  202.4972   25.8124 H       888      M_A    0.0000
   6221 H         127.0325  203.0485   25.0573 H       888      M_A    0.0000
   6222 H         129.6555  202.3799   23.6057 H       888      M_A    0.0000
   6223 H         128.2321  202.9952   22.7787 H       888      M_A    0.0000
   6224 C         126.9930  200.8518   24.4387 C.3     889      M_A    0.0000
   6225 C         125.8727  201.8494   24.1615 C.3     889      M_A    0.0000
   6226 O         124.5999  201.2186   24.2951 O.3     889      M_A    0.0000
   6227 H         126.6215  199.8302   24.2939 H       889      M_A    0.0000
   6228 H         127.3068  200.9131   25.4870 H       889      M_A    0.0000
   6229 H         125.9343  202.2017   23.1240 H       889      M_A    0.0000
   6230 H         125.9515  202.7446   24.7953 H       889      M_A    0.0000
   6231 C         124.3891  200.2440   23.2971 C.3     890      M_A    0.0000
   6232 C         125.2376  198.9984   23.5325 C.3     890      M_A    0.0000
   6233 O         124.9748  198.0198   22.5279 O.3     890      M_A    0.0000
   6234 H         123.3277  199.9688   23.2756 H       890      M_A    0.0000
   6235 H         124.6091  200.6745   22.3136 H       890      M_A    0.0000
   6236 H         124.9660  198.5367   24.4904 H       890      M_A    0.0000
   6237 H         126.3093  199.2359   23.5985 H       890      M_A    0.0000
   6238 C         124.9162  196.7169   23.0660 C.3     891      M_A    0.0000
   6239 C         126.0933  195.8610   22.6090 C.3     891      M_A    0.0000
   6240 O         126.1279  194.6333   23.3353 O.3     891      M_A    0.0000
   6241 H         124.9058  196.7756   24.1610 H       891      M_A    0.0000
   6242 H         123.9690  196.2457   22.7801 H       891      M_A    0.0000
   6243 H         127.0373  196.3756   22.8292 H       891      M_A    0.0000
   6244 H         126.0821  195.6907   21.5227 H       891      M_A    0.0000
   6245 C         125.4447  194.7313   24.5657 C.3     892      M_A    0.0000
   6246 C         124.4016  195.8443   24.5482 C.3     892      M_A    0.0000
   6247 O         123.4718  195.6386   23.4856 O.3     892      M_A    0.0000
   6248 H         124.9590  193.7738   24.7895 H       892      M_A    0.0000
   6249 H         126.1670  194.8990   25.3726 H       892      M_A    0.0000
   6250 H         124.8870  196.8083   24.3501 H       892      M_A    0.0000
   6251 H         123.8941  195.9491   25.5181 H       892      M_A    0.0000
   6252 C         122.2561  196.3176   23.7123 C.3     893      M_A    0.0000
   6253 C         122.4781  197.6692   24.3841 C.3     893      M_A    0.0000
   6254 O         121.2277  198.2882   24.6825 O.3     893      M_A    0.0000
   6255 H         121.7360  196.4612   22.7575 H       893      M_A    0.0000
   6256 H         121.5964  195.6920   24.3242 H       893      M_A    0.0000
   6257 H         123.0007  198.3467   23.6968 H       893      M_A    0.0000
   6258 H         123.1142  197.5862   25.2771 H       893      M_A    0.0000
   6259 C         121.2699  198.9972   25.9014 C.3     894      M_A    0.0000
   6260 C         121.4644  198.0651   27.0933 C.3     894      M_A    0.0000
   6261 O         122.0176  198.7785   28.1982 O.3     894      M_A    0.0000
   6262 H         122.0859  199.7292   25.8686 H       894      M_A    0.0000
   6263 H         120.3480  199.5781   26.0187 H       894      M_A    0.0000
   6264 H         122.1886  197.2804   26.8398 H       894      M_A    0.0000
   6265 H         120.5338  197.5476   27.3681 H       894      M_A    0.0000
   6266 C         121.7490  198.1368   29.4256 C.3     895      M_A    0.0000
   6267 C         122.4441  196.7822   29.5215 C.3     895      M_A    0.0000
   6268 O         123.8303  196.9106   29.2086 O.3     895      M_A    0.0000
   6269 H         122.0773  198.7792   30.2516 H       895      M_A    0.0000
   6270 H         120.6663  198.0187   29.5472 H       895      M_A    0.0000
   6271 H         122.0234  196.0929   28.7783 H       895      M_A    0.0000
   6272 H         122.2906  196.3085   30.5019 H       895      M_A    0.0000
   6273 C         124.6476  196.6626   30.3315 C.3     896      M_A    0.0000
   6274 C         125.8635  195.8144   29.9717 C.3     896      M_A    0.0000
   6275 O         126.2513  195.0046   31.0806 O.3     896      M_A    0.0000
   6276 H         124.9772  197.6170   30.7596 H       896      M_A    0.0000
   6277 H         124.0569  196.1697   31.1119 H       896      M_A    0.0000
   6278 H         126.7200  196.4640   29.7505 H       896      M_A    0.0000
   6279 H         125.6930  195.2118   29.0679 H       896      M_A    0.0000
   6280 C         127.0866  193.9383   30.6860 C.3     897      M_A    0.0000
   6281 C         126.5040  192.5851   31.0816 C.3     897      M_A    0.0000
   6282 O         126.4775  192.4505   32.5019 O.3     897      M_A    0.0000
   6283 H         127.2331  193.9736   29.5997 H       897      M_A    0.0000
   6284 H         128.0804  194.0692   31.1290 H       897      M_A    0.0000
   6285 H         127.1468  191.7779   30.7079 H       897      M_A    0.0000
   6286 H         125.5115  192.4180   30.6387 H       897      M_A    0.0000
   6287 C         126.2838  193.6917   33.1439 C.3     898      M_A    0.0000
   6288 C         127.5299  194.5687   33.0707 C.3     898      M_A    0.0000
   6289 O         128.3701  194.1513   31.9956 O.3     898      M_A    0.0000
   6290 H         125.4379  194.2132   32.6802 H       898      M_A    0.0000
   6291 H         125.9982  193.5224   34.1883 H       898      M_A    0.0000
   6292 H         128.1225  194.4532   33.9871 H       898      M_A    0.0000
   6293 H         127.2788  195.6368   32.9994 H       898      M_A    0.0000
   6294 C         129.3250  195.1349   31.6625 C.3     899      M_A    0.0000
   6295 C         130.6696  194.5172   31.2911 C.3     899      M_A    0.0000
   6296 O         131.5627  195.5207   30.8103 O.3     899      M_A    0.0000
   6297 H         128.9513  195.7361   30.8249 H       899      M_A    0.0000
   6298 H         129.4437  195.8285   32.5026 H       899      M_A    0.0000
   6299 H         130.5381  193.8026   30.4687 H       899      M_A    0.0000
   6300 H         131.1069  193.9493   32.1251 H       899      M_A    0.0000
   6301 C         132.8853  195.0409   30.7062 C.3     900      M_A    0.0000
   6302 C         132.9343  193.5167   30.6669 C.3     900      M_A    0.0000
   6303 O         133.9058  193.0740   29.7204 O.3     900      M_A    0.0000
   6304 H         133.3501  195.4485   29.8004 H       900      M_A    0.0000
   6305 H         133.4787  195.4194   31.5463 H       900      M_A    0.0000
   6306 H         131.9693  193.1205   30.3257 H       900      M_A    0.0000
   6307 H         133.1097  193.0839   31.6624 H       900      M_A    0.0000
   6308 C         134.5554  191.8961   30.1459 C.3     901      M_A    0.0000
   6309 C         133.5632  190.8481   30.6401 C.3     901      M_A    0.0000
   6310 O         134.0343  189.5353   30.3391 O.3     901      M_A    0.0000
   6311 H         135.1438  191.4851   29.3167 H       901      M_A    0.0000
   6312 H         135.2757  192.1405   30.9349 H       901      M_A    0.0000
   6313 H         132.6073  190.9605   30.1127 H       901      M_A    0.0000
   6314 H         133.3394  190.9644   31.7104 H       901      M_A    0.0000
   6315 C         132.9746  188.6501   30.0496 C.3     902      M_A    0.0000
   6316 C         133.0199  187.4044   30.9290 C.3     902      M_A    0.0000
   6317 O         131.8096  186.6598   30.8002 O.3     902      M_A    0.0000
   6318 H         132.0186  189.1680   30.1924 H       902      M_A    0.0000
   6319 H         133.0111  188.3703   28.9906 H       902      M_A    0.0000
   6320 H         133.0918  187.6948   31.9849 H       902      M_A    0.0000
   6321 H         133.9033  186.7839   30.7198 H       902      M_A    0.0000
   6322 C         131.8315  185.4827   31.5776 C.3     903      M_A    0.0000
   6323 C         130.8834  184.4218   31.0273 C.3     903      M_A    0.0000
   6324 O         131.5381  183.1559   30.9594 O.3     903      M_A    0.0000
   6325 H         132.8531  185.0849   31.6070 H       903      M_A    0.0000
   6326 H         131.5719  185.7245   32.6145 H       903      M_A    0.0000
   6327 H         130.5955  184.6751   29.9990 H       903      M_A    0.0000
   6328 H         129.9484  184.3657   31.6034 H       903      M_A    0.0000
   6329 C         132.4536  182.9802   32.0182 C.3     904      M_A    0.0000
   6330 C         132.8930  181.5255   32.1526 C.3     904      M_A    0.0000
   6331 O         134.2997  181.4491   32.3788 O.3     904      M_A    0.0000
   6332 H         133.3308  183.6166   31.8503 H       904      M_A    0.0000
   6333 H         132.0020  183.3295   32.9537 H       904      M_A    0.0000
   6334 H         132.7026  180.9894   31.2141 H       904      M_A    0.0000
   6335 H         132.3265  180.9938   32.9308 H       904      M_A    0.0000
   6336 C         134.7618  180.1162   32.3700 C.3     905      M_A    0.0000
   6337 C         133.6543  179.1344   32.0000 C.3     905      M_A    0.0000
   6338 O         134.1339  177.7925   32.0721 O.3     905      M_A    0.0000
   6339 H         135.5906  180.0229   31.6579 H       905      M_A    0.0000
   6340 H         135.1786  179.8673   33.3525 H       905      M_A    0.0000
   6341 H         133.3447  179.2952   30.9594 H       905      M_A    0.0000
   6342 H         132.7538  179.2780   32.6145 H       905      M_A    0.0000
   6343 C         133.1984  176.8716   31.5553 C.3     906      M_A    0.0000
   6344 C         132.8351  175.7984   32.5768 C.3     906      M_A    0.0000
   6345 O         132.9612  174.4993   32.0004 O.3     906      M_A    0.0000
   6346 H         132.2932  177.4075   31.2454 H       906      M_A    0.0000
   6347 H         133.6025  176.4111   30.6466 H       906      M_A    0.0000
   6348 H         131.7832  175.9037   32.8714 H       906      M_A    0.0000
   6349 H         133.4241  175.8924   33.5007 H       906      M_A    0.0000
   6350 C         132.2306  173.5314   32.7213 C.3     907      M_A    0.0000
   6351 C         132.2580  173.8021   34.2224 C.3     907      M_A    0.0000
   6352 O         132.6795  172.6374   34.9308 O.3     907      M_A    0.0000
   6353 H         131.1927  173.5206   32.3673 H       907      M_A    0.0000
   6354 H         132.6331  172.5349   32.5067 H       907      M_A    0.0000
   6355 H         131.2456  174.0300   34.5795 H       907      M_A    0.0000
   6356 H         132.8764  174.6763   34.4726 H       907      M_A    0.0000
   6357 C         133.7583  171.9937   34.2889 C.3     908      M_A    0.0000
   6358 C         135.1032  172.5555   34.7393 C.3     908      M_A    0.0000
   6359 O         135.8375  171.5695   35.4635 O.3     908      M_A    0.0000
   6360 H         133.7184  170.9183   34.5002 H       908      M_A    0.0000
   6361 H         133.6490  172.0921   33.2029 H       908      M_A    0.0000
   6362 H         134.9456  173.3922   35.4319 H       908      M_A    0.0000
   6363 H         135.6845  172.9586   33.8974 H       908      M_A    0.0000
   6364 C         137.1835  171.9485   35.6502 C.3     909      M_A    0.0000
   6365 C         137.7736  171.3393   36.9183 C.3     909      M_A    0.0000
   6366 O         138.7352  170.3380   36.5887 O.3     909      M_A    0.0000
   6367 H         137.7739  171.6349   34.7809 H       909      M_A    0.0000
   6368 H         137.2541  173.0417   35.6845 H       909      M_A    0.0000
   6369 H         136.9861  170.8331   37.4911 H       909      M_A    0.0000
   6370 H         138.1957  172.1046   37.5856 H       909      M_A    0.0000
   6371 C         138.1536  169.2619   35.8858 C.3     910      M_A    0.0000
   6372 C         137.2116  168.4502   36.7696 C.3     910      M_A    0.0000
   6373 O         136.9800  167.1628   36.1996 O.3     910      M_A    0.0000
   6374 H         137.6046  169.6480   35.0185 H       910      M_A    0.0000
   6375 H         138.9441  168.6197   35.4812 H       910      M_A    0.0000
   6376 H         136.2327  168.9433   36.8242 H       910      M_A    0.0000
   6377 H         137.5773  168.3771   37.8040 H       910      M_A    0.0000
   6378 C         137.9600  166.2285   36.5958 C.3     911      M_A    0.0000
   6379 C         137.8117  164.9027   35.8559 C.3     911      M_A    0.0000
   6380 O         139.0553  164.2036   35.8328 O.3     911      M_A    0.0000
   6381 H         138.9570  166.6457   36.4092 H       911      M_A    0.0000
   6382 H         137.8971  166.0696   37.6783 H       911      M_A    0.0000
   6383 H         137.5430  165.0876   34.8080 H       911      M_A    0.0000
   6384 H         137.0052  164.2842   36.2757 H       911      M_A    0.0000
   6385 C         138.8801  162.8138   36.0004 C.3     912      M_A    0.0000
   6386 C         138.6318  162.1089   34.6705 C.3     912      M_A    0.0000
   6387 O         139.0211  160.7387   34.7528 O.3     912      M_A    0.0000
   6388 H         139.7697  162.3903   36.4820 H       912      M_A    0.0000
   6389 H         138.0478  162.6308   36.6895 H       912      M_A    0.0000
   6390 H         139.2545  162.5592   33.8870 H       912      M_A    0.0000
   6391 H         137.5901  162.2163   34.3350 H       912      M_A    0.0000
   6392 C         137.9776  159.9244   35.2411 C.3     913      M_A    0.0000
   6393 C         138.3879  158.4566   35.3088 C.3     913      M_A    0.0000
   6394 O         137.6036  157.7647   36.2794 O.3     913      M_A    0.0000
   6395 H         137.6817  160.2712   36.2385 H       913      M_A    0.0000
   6396 H         137.0929  160.0435   34.6054 H       913      M_A    0.0000
   6397 H         139.4307  158.3751   35.6409 H       913      M_A    0.0000
   6398 H         138.3396  157.9691   34.3243 H       913      M_A    0.0000
   6399 C         137.5062  156.3871   35.9911 C.3     914      M_A    0.0000
   6400 C         138.5078  155.5666   36.7978 C.3     914      M_A    0.0000
   6401 O         138.0422  154.2270   36.9549 O.3     914      M_A    0.0000
   6402 H         136.4879  156.0414   36.2061 H       914      M_A    0.0000
   6403 H         137.6591  156.2265   34.9178 H       914      M_A    0.0000
   6404 H         138.6010  155.9807   37.8099 H       914      M_A    0.0000
   6405 H         139.5154  155.5981   36.3587 H       914      M_A    0.0000
   6406 C         137.3176  153.7869   35.8273 C.3     915      M_A    0.0000
   6407 C         137.7251  152.3787   35.4054 C.3     915      M_A    0.0000
   6408 O         136.6315  151.4757   35.5624 O.3     915      M_A    0.0000
   6409 H         136.2446  153.8084   36.0531 H       915      M_A    0.0000
   6410 H         137.4660  154.4902   35.0000 H       915      M_A    0.0000
   6411 H         138.5254  152.0095   36.0595 H       915      M_A    0.0000
   6412 H         138.1284  152.3551   34.3827 H       915      M_A    0.0000
   6413 C         136.3190  151.2600   36.9211 C.3     916      M_A    0.0000
   6414 C         137.3216  150.3267   37.5925 C.3     916      M_A    0.0000
   6415 O         136.7247  149.0564   37.8493 O.3     916      M_A    0.0000
   6416 H         136.3006  152.2219   37.4475 H       916      M_A    0.0000
   6417 H         135.3051  150.8520   37.0027 H       916      M_A    0.0000
   6418 H         137.6140  150.7326   38.5693 H       916      M_A    0.0000
   6419 H         138.2491  150.2298   37.0097 H       916      M_A    0.0000
   6420 C         137.6302  147.9966   37.6318 C.3     917      M_A    0.0000
   6421 C         138.0330  147.8869   36.1645 C.3     917      M_A    0.0000
   6422 O         139.3204  147.2834   36.0453 O.3     917      M_A    0.0000
   6423 H         138.5236  148.1487   38.2493 H       917      M_A    0.0000
   6424 H         137.1825  147.0570   37.9750 H       917      M_A    0.0000
   6425 H         138.1209  148.8888   35.7253 H       917      M_A    0.0000
   6426 H         137.2776  147.3549   35.5682 H       917      M_A    0.0000
   6427 C         140.2170  147.7601   37.0246 C.3     918      M_A    0.0000
   6428 C         141.6242  147.2066   36.8228 C.3     918      M_A    0.0000
   6429 O         142.0605  146.5168   37.9931 O.3     918      M_A    0.0000
   6430 H         140.2433  148.8560   36.9913 H       918      M_A    0.0000
   6431 H         139.8438  147.4974   38.0210 H       918      M_A    0.0000
   6432 H         142.3318  148.0314   36.6698 H       918      M_A    0.0000
   6433 H         141.6932  146.5721   35.9273 H       918      M_A    0.0000
   6434 C         142.9346  145.4541   37.6816 C.3     919      M_A    0.0000
   6435 C         143.4654  145.5560   36.2550 C.3     919      M_A    0.0000
   6436 O         144.7265  144.8977   36.1448 O.3     919      M_A    0.0000
   6437 H         143.7733  145.4538   38.3882 H       919      M_A    0.0000
   6438 H         142.4164  144.4996   37.8279 H       919      M_A    0.0000
   6439 H         143.6435  146.6076   35.9967 H       919      M_A    0.0000
   6440 H         142.7428  145.1765   35.5181 H       919      M_A    0.0000
   6441 C         144.5788  143.5194   35.8826 C.3     920      M_A    0.0000
   6442 C         145.8837  142.8897   35.4054 C.3     920      M_A    0.0000
   6443 O         146.2064  141.7496   36.2002 O.3     920      M_A    0.0000
   6444 H         144.2344  143.0110   36.7912 H       920      M_A    0.0000
   6445 H         143.7896  143.3717   35.1366 H       920      M_A    0.0000
   6446 H         146.7106  143.5996   35.5354 H       920      M_A    0.0000
   6447 H         145.8553  142.6437   34.3340 H       920      M_A    0.0000
   6448 C         147.4217  141.1560   35.7989 C.3     921      M_A    0.0000
   6449 C         148.6058  142.0966   35.9999 C.3     921      M_A    0.0000
   6450 O         149.8087  141.3510   36.1817 O.3     921      M_A    0.0000
   6451 H         147.5822  140.2336   36.3699 H       921      M_A    0.0000
   6452 H         147.3508  140.8522   34.7484 H       921      M_A    0.0000
   6453 H         148.4657  142.6831   36.9169 H       921      M_A    0.0000
   6454 H         148.6982  142.8242   35.1806 H       921      M_A    0.0000
   6455 C         150.1333  140.5903   35.0388 C.3     922      M_A    0.0000
   6456 C         151.4428  139.8285   35.2177 C.3     922      M_A    0.0000
   6457 O         151.3912  138.5807   34.5275 O.3     922      M_A    0.0000
   6458 H         149.3211  139.8839   34.8291 H       922      M_A    0.0000
   6459 H         150.1927  141.2497   34.1655 H       922      M_A    0.0000
   6460 H         151.5933  139.5878   36.2778 H       922      M_A    0.0000
   6461 H         152.3131  140.4268   34.9116 H       922      M_A    0.0000
   6462 C         152.2003  137.6043   35.1459 C.3     923      M_A    0.0000
   6463 C         153.1364  136.9289   34.1485 C.3     923      M_A    0.0000
   6464 O         154.0744  136.0975   34.8303 O.3     923      M_A    0.0000
   6465 H         152.7879  138.0716   35.9453 H       923      M_A    0.0000
   6466 H         151.5637  136.8587   35.6356 H       923      M_A    0.0000
   6467 H         153.7262  137.6868   33.6172 H       923      M_A    0.0000
   6468 H         152.5848  136.3721   33.3772 H       923      M_A    0.0000
   6469 C         154.1752  134.8219   34.2360 C.3     924      M_A    0.0000
   6470 C         155.6052  134.5071   33.8079 C.3     924      M_A    0.0000
   6471 O         155.8059  133.0960   33.7420 O.3     924      M_A    0.0000
   6472 H         153.8264  134.0615   34.9450 H       924      M_A    0.0000
   6473 H         153.4988  134.7651   33.3755 H       924      M_A    0.0000
   6474 H         156.3114  134.8838   34.5587 H       924      M_A    0.0000
   6475 H         155.8703  135.0002   32.8615 H       924      M_A    0.0000
   6476 C         156.8752  132.7566   32.8866 C.3     925      M_A    0.0000
   6477 C         157.4097  131.3571   33.1745 C.3     925      M_A    0.0000
   6478 O         158.3429  130.9640   32.1694 O.3     925      M_A    0.0000
   6479 H         156.5402  132.8163   31.8440 H       925      M_A    0.0000
   6480 H         157.6752  133.4984   32.9895 H       925      M_A    0.0000
   6481 H         156.5899  130.6286   33.1352 H       925      M_A    0.0000
   6482 H         157.8415  131.2800   34.1829 H       925      M_A    0.0000
   6483 C         159.4025  130.2019   32.7051 C.3     926      M_A    0.0000
   6484 C         160.2710  131.0249   33.6515 C.3     926      M_A    0.0000
   6485 O         161.0053  130.1684   34.5250 O.3     926      M_A    0.0000
   6486 H         158.9939  129.3354   33.2389 H       926      M_A    0.0000
   6487 H         160.0093  129.7948   31.8884 H       926      M_A    0.0000
   6488 H         159.6364  131.6487   34.2938 H       926      M_A    0.0000
   6489 H         160.9323  131.7156   33.1086 H       926      M_A    0.0000
   6490 C         161.1664  130.7373   35.8059 C.3     927      M_A    0.0000
   6491 C         162.2054  129.9868   36.6332 C.3     927      M_A    0.0000
   6492 O         163.5147  130.4812   36.3556 O.3     927      M_A    0.0000
   6493 H         161.4654  131.7874   35.7027 H       927      M_A    0.0000
   6494 H         160.2014  130.7479   36.3252 H       927      M_A    0.0000
   6495 H         162.2111  128.9258   36.3526 H       927      M_A    0.0000
   6496 H         161.9780  130.0192   37.7086 H       927      M_A    0.0000
   6497 C         164.3044  129.5271   35.6799 C.3     928      M_A    0.0000
   6498 C         165.3494  130.1868   34.7856 C.3     928      M_A    0.0000
   6499 O         166.4863  129.3374   34.6381 O.3     928      M_A    0.0000
   6500 H         164.8014  128.8809   36.4133 H       928      M_A    0.0000
   6501 H         163.6571  128.8699   35.0882 H       928      M_A    0.0000
   6502 H         165.7136  131.1098   35.2545 H       928      M_A    0.0000
   6503 H         164.9323  130.4807   33.8115 H       928      M_A    0.0000
   6504 C         166.1842  128.1801   33.8899 C.3     929      M_A    0.0000
   6505 C         167.3806  127.2386   33.7937 C.3     929      M_A    0.0000
   6506 O         166.9473  125.8792   33.8133 O.3     929      M_A    0.0000
   6507 H         165.3394  127.6570   34.3539 H       929      M_A    0.0000
   6508 H         165.8464  128.4701   32.8885 H       929      M_A    0.0000
   6509 H         168.0290  127.3675   34.6698 H       929      M_A    0.0000
   6510 H         168.0050  127.4537   32.9146 H       929      M_A    0.0000
   6511 C         167.9425  125.0034   33.3307 C.3     930      M_A    0.0000
   6512 C         167.4208  123.5773   33.1851 C.3     930      M_A    0.0000
   6513 O         167.9392  122.9761   31.9995 O.3     930      M_A    0.0000
   6514 H         168.3056  125.3643   32.3609 H       930      M_A    0.0000
   6515 H         168.8069  125.0258   34.0040 H       930      M_A    0.0000
   6516 H         166.3292  123.5884   33.0727 H       930      M_A    0.0000
   6517 H         167.6320  122.9680   34.0758 H       930      M_A    0.0000
   6518 C         168.1972  121.6006   32.1773 C.3     931      M_A    0.0000
   6519 C         167.0230  120.8839   32.8367 C.3     931      M_A    0.0000
   6520 O         166.5118  119.8684   31.9745 O.3     931      M_A    0.0000
   6521 H         168.4104  121.1415   31.2045 H       931      M_A    0.0000
   6522 H         169.1059  121.4736   32.7766 H       931      M_A    0.0000
   6523 H         166.1995  121.5901   33.0024 H       931      M_A    0.0000
   6524 H         167.2876  120.4825   33.8256 H       931      M_A    0.0000
   6525 C         167.1416  118.6254   32.1954 C.3     932      M_A    0.0000
   6526 C         167.5919  117.9778   30.8896 C.3     932      M_A    0.0000
   6527 O         168.8078  117.2571   31.0847 O.3     932      M_A    0.0000
   6528 H         168.0067  118.7678   32.8542 H       932      M_A    0.0000
   6529 H         166.4579  117.9599   32.7346 H       932      M_A    0.0000
   6530 H         167.8097  118.7528   30.1438 H       932      M_A    0.0000
   6531 H         166.8081  117.3422   30.4528 H       932      M_A    0.0000
   6532 C         168.8308  116.5920   32.3287 C.3     933      M_A    0.0000
   6533 C         169.8035  115.4168   32.3256 C.3     933      M_A    0.0000
   6534 O         169.6271  114.6215   33.4970 O.3     933      M_A    0.0000
   6535 H         169.1122  117.3019   33.1158 H       933      M_A    0.0000
   6536 H         167.8203  116.2493   32.5786 H       933      M_A    0.0000
   6537 H         170.8363  115.7866   32.3573 H       933      M_A    0.0000
   6538 H         169.7202  114.8150   31.4091 H       933      M_A    0.0000
   6539 C         170.8034  113.9217   33.8391 C.3     934      M_A    0.0000
   6540 C         171.5309  113.3978   32.6048 C.3     934      M_A    0.0000
   6541 O         172.3915  112.3153   32.9562 O.3     934      M_A    0.0000
   6542 H         171.4688  114.5838   34.4063 H       934      M_A    0.0000
   6543 H         170.5538  113.0948   34.5136 H       934      M_A    0.0000
   6544 H         172.1767  114.1825   32.1906 H       934      M_A    0.0000
   6545 H         170.8329  113.1185   31.8023 H       934      M_A    0.0000
   6546 C         173.2197  111.9318   31.8803 C.3     935      M_A    0.0000
   6547 C         173.1721  110.4267   31.6365 C.3     935      M_A    0.0000
   6548 O         174.1209  110.0538   30.6382 O.3     935      M_A    0.0000
   6549 H         172.9069  112.4627   30.9731 H       935      M_A    0.0000
   6550 H         174.2485  112.2531   32.0784 H       935      M_A    0.0000
   6551 H         172.1866  110.1424   31.2459 H       935      M_A    0.0000
   6552 H         173.3119  109.8539   32.5646 H       935      M_A    0.0000
   6553 C         173.8268  108.7925   30.0787 C.3     936      M_A    0.0000
   6554 C         174.7304  107.6987   30.6393 C.3     936      M_A    0.0000
   6555 O         174.2648  106.4121   30.2345 O.3     936      M_A    0.0000
   6556 H         172.7777  108.5420   30.2770 H       936      M_A    0.0000
   6557 H         173.9237  108.8447   28.9883 H       936      M_A    0.0000
   6558 H         174.6927  107.7085   31.7361 H       936      M_A    0.0000
   6559 H         175.7842  107.8542   30.3664 H       936      M_A    0.0000
   6560 C         175.2144  105.4027   30.4985 C.3     937      M_A    0.0000
   6561 C         174.6180  104.0075   30.3396 C.3     937      M_A    0.0000
   6562 O         175.6361  103.0663   30.0025 O.3     937      M_A    0.0000
   6563 H         176.0674  105.5188   29.8192 H       937      M_A    0.0000
   6564 H         175.6145  105.5327   31.5104 H       937      M_A    0.0000
   6565 H         173.9033  103.9993   29.5068 H       937      M_A    0.0000
   6566 H         174.0550  103.6958   31.2311 H       937      M_A    0.0000
   6567 C         175.3723  101.7906   30.5440 C.3     938      M_A    0.0000
   6568 C         174.9026  100.8073   29.4763 C.3     938      M_A    0.0000
   6569 O         175.2455   99.4719   29.8438 O.3     938      M_A    0.0000
   6570 H         176.2786  101.4057   31.0269 H       938      M_A    0.0000
   6571 H         174.6216  101.8783   31.3375 H       938      M_A    0.0000
   6572 H         175.4200  101.0085   28.5296 H       938      M_A    0.0000
   6573 H         173.8279  100.9083   29.2670 H       938      M_A    0.0000
   6574 C         175.4781   98.6593   28.7143 C.3     939      M_A    0.0000
   6575 C         175.4920   97.1772   29.0751 C.3     939      M_A    0.0000
   6576 O         175.3421   96.3779   27.9027 O.3     939      M_A    0.0000
   6577 H         174.7017   98.8490   27.9634 H       939      M_A    0.0000
   6578 H         176.4268   98.9463   28.2466 H       939      M_A    0.0000
   6579 H         174.6358   96.9415   29.7199 H       939      M_A    0.0000
   6580 H         176.3911   96.8997   29.6442 H       939      M_A    0.0000
   6581 C         176.5802   96.1308   27.2732 C.3     940      M_A    0.0000
   6582 C         176.8373   94.6378   27.0938 C.3     940      M_A    0.0000
   6583 O         177.2978   94.3674   25.7707 O.3     940      M_A    0.0000
   6584 H         176.5973   96.6282   26.2960 H       940      M_A    0.0000
   6585 H         177.3858   96.5882   27.8588 H       940      M_A    0.0000
   6586 H         175.8997   94.0802   27.2134 H       940      M_A    0.0000
   6587 H         177.5282   94.2442   27.8533 H       940      M_A    0.0000
   6588 C         177.4472   92.9838   25.5388 C.3     941      M_A    0.0000
   6589 C         176.8468   92.1515   26.6674 C.3     941      M_A    0.0000
   6590 O         176.7174   90.7883   26.2663 O.3     941      M_A    0.0000
   6591 H         176.9660   92.7198   24.5894 H       941      M_A    0.0000
   6592 H         178.5100   92.7466   25.4146 H       941      M_A    0.0000
   6593 H         175.8320   92.5037   26.8924 H       941      M_A    0.0000
   6594 H         177.4199   92.2481   27.6009 H       941      M_A    0.0000
   6595 C         175.9936   90.0293   27.2099 C.3     942      M_A    0.0000
   6596 C         176.0000   90.6827   28.5884 C.3     942      M_A    0.0000
   6597 O         175.1160   89.9927   29.4706 O.3     942      M_A    0.0000
   6598 H         174.9601   89.9081   26.8638 H       942      M_A    0.0000
   6599 H         176.4137   89.0186   27.2657 H       942      M_A    0.0000
   6600 H         175.6225   91.7107   28.5164 H       942      M_A    0.0000
   6601 H         177.0149   90.7563   29.0052 H       942      M_A    0.0000
   6602 C         174.7299   90.7975   30.5631 C.3     943      M_A    0.0000
   6603 C         175.8533   91.7299   31.0056 C.3     943      M_A    0.0000
   6604 O         175.3190   92.9714   31.4627 O.3     943      M_A    0.0000
   6605 H         173.8479   91.3877   30.2867 H       943      M_A    0.0000
   6606 H         174.4161   90.1576   31.3956 H       943      M_A    0.0000
   6607 H         176.4991   91.9687   30.1510 H       943      M_A    0.0000
   6608 H         176.5026   91.2639   31.7609 H       943      M_A    0.0000
   6609 C         176.1699   93.5972   32.3980 C.3     944      M_A    0.0000
   6610 C         176.5503   95.0090   31.9628 C.3     944      M_A    0.0000
   6611 O         175.8488   95.9764   32.7425 O.3     944      M_A    0.0000
   6612 H         175.6728   93.6336   33.3748 H       944      M_A    0.0000
   6613 H         177.0692   92.9871   32.5395 H       944      M_A    0.0000
   6614 H         176.2459   95.1738   30.9213 H       944      M_A    0.0000
   6615 H         177.6373   95.1716   31.9949 H       944      M_A    0.0000
   6616 C         174.6235   96.3429   32.1471 C.3     945      M_A    0.0000
   6617 C         173.8902   97.4021   32.9643 C.3     945      M_A    0.0000
   6618 O         172.8406   97.9865   32.1945 O.3     945      M_A    0.0000
   6619 H         174.8095   96.7214   31.1348 H       945      M_A    0.0000
   6620 H         173.9953   95.4531   32.0259 H       945      M_A    0.0000
   6621 H         174.5770   98.2193   33.2189 H       945      M_A    0.0000
   6622 H         173.5199   97.0026   33.9196 H       945      M_A    0.0000
   6623 C         173.3207   98.9921   31.3292 C.3     946      M_A    0.0000
   6624 C         173.5818  100.3001   32.0695 C.3     946      M_A    0.0000
   6625 O         172.4074  101.1104   32.0780 O.3     946      M_A    0.0000
   6626 H         174.2453   98.6486   30.8498 H       946      M_A    0.0000
   6627 H         172.6010   99.1507   30.5182 H       946      M_A    0.0000
   6628 H         174.3518  100.8796   31.5442 H       946      M_A    0.0000
   6629 H         173.9654  100.1294   33.0858 H       946      M_A    0.0000
   6630 C         172.6956  102.4500   32.4138 C.3     947      M_A    0.0000
   6631 C         172.1310  102.8263   33.7800 C.3     947      M_A    0.0000
   6632 O         172.7236  104.0372   34.2475 O.3     947      M_A    0.0000
   6633 H         173.7819  102.6007   32.4093 H       947      M_A    0.0000
   6634 H         172.2955  103.1151   31.6401 H       947      M_A    0.0000
   6635 H         172.3876  102.0538   34.5161 H       947      M_A    0.0000
   6636 H         171.0331  102.8885   33.7696 H       947      M_A    0.0000
   6637 C         171.9958  104.5997   35.3171 C.3     948      M_A    0.0000
   6638 C         172.2205  106.1046   35.4266 C.3     948      M_A    0.0000
   6639 O         171.1098  106.7285   36.0692 O.3     948      M_A    0.0000
   6640 H         170.9274  104.3954   35.1776 H       948      M_A    0.0000
   6641 H         172.2784  104.1035   36.2525 H       948      M_A    0.0000
   6642 H         172.2843  106.5468   34.4242 H       948      M_A    0.0000
   6643 H         173.1685  106.3445   35.9294 H       948      M_A    0.0000
   6644 C         171.5221  107.6960   37.0095 C.3     949      M_A    0.0000
   6645 C         170.5930  108.9059   37.0229 C.3     949      M_A    0.0000
   6646 O         170.5970  109.5226   38.3096 O.3     949      M_A    0.0000
   6647 H         171.5528  107.2433   38.0079 H       949      M_A    0.0000
   6648 H         172.5492  108.0071   36.7875 H       949      M_A    0.0000
   6649 H         169.5597  108.5857   36.8383 H       949      M_A    0.0000
   6650 H         170.8393  109.6238   36.2271 H       949      M_A    0.0000
   6651 C         170.5874  110.9304   38.2177 C.3     950      M_A    0.0000
   6652 C         169.5799  111.5545   39.1783 C.3     950      M_A    0.0000
   6653 O         170.0142  112.8526   39.5810 O.3     950      M_A    0.0000
   6654 H         171.5910  111.3161   38.4337 H       950      M_A    0.0000
   6655 H         170.3652  111.2279   37.1866 H       950      M_A    0.0000
   6656 H         169.5153  110.9536   40.0943 H       950      M_A    0.0000
   6657 H         168.5658  111.5784   38.7540 H       950      M_A    0.0000
   6658 C         169.2082  113.3801   40.6117 C.3     951      M_A    0.0000
   6659 C         169.1349  114.9027   40.5514 C.3     951      M_A    0.0000
   6660 O         168.0005  115.3757   41.2762 O.3     951      M_A    0.0000
   6661 H         168.1985  112.9589   40.5358 H       951      M_A    0.0000
   6662 H         169.5983  113.0559   41.5831 H       951      M_A    0.0000
   6663 H         168.9948  115.2293   39.5131 H       951      M_A    0.0000
   6664 H         170.0653  115.3744   40.8993 H       951      M_A    0.0000
   6665 C         168.3012  116.5317   42.0269 C.3     952      M_A    0.0000
   6666 C         167.0820  117.4336   42.1922 C.3     952      M_A    0.0000
   6667 O         167.2073  118.2295   43.3698 O.3     952      M_A    0.0000
   6668 H         168.6786  116.2370   43.0135 H       952      M_A    0.0000
   6669 H         169.1174  117.0799   41.5429 H       952      M_A    0.0000
   6670 H         166.1807  116.8224   42.3283 H       952      M_A    0.0000
   6671 H         166.9025  118.0519   41.3007 H       952      M_A    0.0000
   6672 C         167.0407  119.6033   43.0958 C.3     953      M_A    0.0000
   6673 C         166.4178  120.3452   44.2742 C.3     953      M_A    0.0000
   6674 O         166.7554  121.7307   44.2251 O.3     953      M_A    0.0000
   6675 H         168.0140  120.0468   42.8536 H       953      M_A    0.0000
   6676 H         166.4222  119.7249   42.1993 H       953      M_A    0.0000
   6677 H         166.8287  119.9615   45.2168 H       953      M_A    0.0000
   6678 H         165.3300  120.1935   44.3286 H       953      M_A    0.0000
   6679 C         166.3185  122.4193   45.3763 C.3     954      M_A    0.0000
   6680 C         164.8100  122.3002   45.5700 C.3     954      M_A    0.0000
   6681 O         164.3966  123.0334   46.7222 O.3     954      M_A    0.0000
   6682 H         166.8362  122.0208   46.2571 H       954      M_A    0.0000
   6683 H         166.6113  123.4729   45.3052 H       954      M_A    0.0000
   6684 H         164.5388  121.2535   45.7576 H       954      M_A    0.0000
   6685 H         164.2536  122.6059   44.6722 H       954      M_A    0.0000
   6686 C         165.1969  124.1759   46.9331 C.3     955      M_A    0.0000
   6687 C         164.3563  125.4013   47.2784 C.3     955      M_A    0.0000
   6688 O         165.0195  126.2003   48.2569 O.3     955      M_A    0.0000
   6689 H         165.9091  123.9770   47.7429 H       955      M_A    0.0000
   6690 H         165.8017  124.3686   46.0397 H       955      M_A    0.0000
   6691 H         163.4063  125.0876   47.7296 H       955      M_A    0.0000
   6692 H         164.0941  125.9865   46.3851 H       955      M_A    0.0000
   6693 C         164.3931  127.4533   48.4245 C.3     956      M_A    0.0000
   6694 C         162.9148  127.3065   48.7712 C.3     956      M_A    0.0000
   6695 O         162.5359  128.2689   49.7541 O.3     956      M_A    0.0000
   6696 H         164.9042  128.0125   49.2174 H       956      M_A    0.0000
   6697 H         164.5129  128.0470   47.5112 H       956      M_A    0.0000
   6698 H         162.7320  126.3212   49.2187 H       956      M_A    0.0000
   6699 H         162.2744  127.3626   47.8790 H       956      M_A    0.0000
   6700 C         163.2963  129.4527   49.6510 C.3     957      M_A    0.0000
   6701 C         162.6150  130.6269   50.3469 C.3     957      M_A    0.0000
   6702 O         163.5822  131.5935   50.7544 O.3     957      M_A    0.0000
   6703 H         164.2875  129.2880   50.0904 H       957      M_A    0.0000
   6704 H         163.4696  129.6850   48.5940 H       957      M_A    0.0000
   6705 H         162.1198  130.2818   51.2635 H       957      M_A    0.0000
   6706 H         161.8288  131.0762   49.7231 H       957      M_A    0.0000
   6707 C         162.9943  132.6528   51.4773 C.3     958      M_A    0.0000
   6708 C         161.4815  132.6988   51.2864 C.3     958      M_A    0.0000
   6709 O         160.8796  133.5303   52.2774 O.3     958      M_A    0.0000
   6710 H         163.2285  132.5405   52.5427 H       958      M_A    0.0000
   6711 H         163.4462  133.6019   51.1674 H       958      M_A    0.0000
   6712 H         161.0566  131.6966   51.4261 H       958      M_A    0.0000
   6713 H         161.2035  133.0117   50.2695 H       958      M_A    0.0000
   6714 C         161.7634  134.5328   52.7296 C.3     959      M_A    0.0000
   6715 C         161.0151  135.7280   53.3117 C.3     959      M_A    0.0000
   6716 O         161.7947  136.3566   54.3281 O.3     959      M_A    0.0000
   6717 H         162.4335  134.1117   53.4888 H       959      M_A    0.0000
   6718 H         162.4073  134.8526   51.9026 H       959      M_A    0.0000
   6719 H         160.0910  135.3899   53.7975 H       959      M_A    0.0000
   6720 H         160.7098  136.4422   52.5333 H       959      M_A    0.0000
   6721 C         161.3095  137.6435   54.6422 C.3     960      M_A    0.0000
   6722 C         159.7991  137.6435   54.8564 C.3     960      M_A    0.0000
   6723 O         159.4303  138.6457   55.8027 O.3     960      M_A    0.0000
   6724 H         161.8103  138.0107   55.5461 H       960      M_A    0.0000
   6725 H         161.5806  138.3417   53.8422 H       960      M_A    0.0000
   6726 H         159.4824  136.6841   55.2850 H       960      M_A    0.0000
   6727 H         159.2486  137.7547   53.9110 H       960      M_A    0.0000
   6728 C         160.2213  139.8068   55.6737 C.3     961      M_A    0.0000
   6729 C         159.4852  141.0514   56.1597 C.3     961      M_A    0.0000
   6730 O         160.2463  141.7194   57.1649 O.3     961      M_A    0.0000
   6731 H         161.1491  139.6804   56.2445 H       961      M_A    0.0000
   6732 H         160.5247  139.9281   54.6276 H       961      M_A    0.0000
   6733 H         158.5369  140.7643   56.6317 H       961      M_A    0.0000
   6734 H         159.2245  141.7261   55.3314 H       961      M_A    0.0000
   6735 C         159.4479  142.5886   57.9377 C.3     962      M_A    0.0000
   6736 C         158.4003  143.3018   57.0886 C.3     962      M_A    0.0000
   6737 O         157.4235  143.9241   57.9220 O.3     962      M_A    0.0000
   6738 H         158.9525  142.0178   58.7324 H       962      M_A    0.0000
   6739 H         160.0883  143.3190   58.4451 H       962      M_A    0.0000
   6740 H         157.8593  142.5726   56.4722 H       962      M_A    0.0000
   6741 H         158.8546  144.0187   56.3895 H       962      M_A    0.0000
   6742 C         157.8245  145.2142   58.3285 C.3     963      M_A    0.0000
   6743 C         156.8512  145.8198   59.3351 C.3     963      M_A    0.0000
   6744 O         157.5257  146.7477   60.1836 O.3     963      M_A    0.0000
   6745 H         158.8268  145.1614   58.7703 H       963      M_A    0.0000
   6746 H         157.9158  145.8625   57.4497 H       963      M_A    0.0000
   6747 H         156.4553  145.0342   59.9913 H       963      M_A    0.0000
   6748 H         155.9807  146.2772   58.8431 H       963      M_A    0.0000
   6749 C         157.5172  148.0525   59.6472 C.3     964      M_A    0.0000
   6750 C         156.1127  148.6477   59.6257 C.3     964      M_A    0.0000
   6751 O         155.5808  148.7164   60.9479 O.3     964      M_A    0.0000
   6752 H         158.1807  148.6939   60.2397 H       964      M_A    0.0000
   6753 H         157.9387  148.0347   58.6358 H       964      M_A    0.0000
   6754 H         155.4389  147.9948   59.0564 H       964      M_A    0.0000
   6755 H         156.0874  149.6268   59.1258 H       964      M_A    0.0000
   6756 C         154.2182  149.0822   60.9478 C.3     965      M_A    0.0000
   6757 C         153.8251  149.8050   59.6632 C.3     965      M_A    0.0000
   6758 O         152.5573  150.4411   59.8178 O.3     965      M_A    0.0000
   6759 H         153.6004  148.1844   61.0699 H       965      M_A    0.0000
   6760 H         154.0090  149.7132   61.8191 H       965      M_A    0.0000
   6761 H         153.7084  149.0803   58.8474 H       965      M_A    0.0000
   6762 H         154.5988  150.5145   59.3360 H       965      M_A    0.0000
   6763 C         152.0582  150.3062   61.1305 C.3     966      M_A    0.0000
   6764 C         152.6463  151.3534   62.0712 C.3     966      M_A    0.0000
   6765 O         153.9778  151.6835   61.6787 O.3     966      M_A    0.0000
   6766 H         150.9654  150.3961   61.1154 H       966      M_A    0.0000
   6767 H         152.2730  149.2976   61.5015 H       966      M_A    0.0000
   6768 H         152.7172  150.9451   63.0874 H       966      M_A    0.0000
   6769 H         152.0100  152.2473   62.1426 H       966      M_A    0.0000
   6770 C         154.4257  152.8740   62.2890 C.3     967      M_A    0.0000
   6771 C         153.8096  153.0696   63.6708 C.3     967      M_A    0.0000
   6772 O         154.5548  154.0309   64.4167 O.3     967      M_A    0.0000
   6773 H         155.5190  152.8513   62.3724 H       967      M_A    0.0000
   6774 H         154.1900  153.7271   61.6427 H       967      M_A    0.0000
   6775 H         153.8610  152.1320   64.2389 H       967      M_A    0.0000
   6776 H         152.7444  153.3364   63.6133 H       967      M_A    0.0000
   6777 C         154.1302  154.0974   65.7605 C.3     968      M_A    0.0000
   6778 C         153.6750  155.5023   66.1426 C.3     968      M_A    0.0000
   6779 O         152.9154  155.4684   67.3500 O.3     968      M_A    0.0000
   6780 H         153.3091  153.3877   65.9182 H       968      M_A    0.0000
   6781 H         154.9435  153.7688   66.4175 H       968      M_A    0.0000
   6782 H         153.0063  155.9016   65.3694 H       968      M_A    0.0000
   6783 H         154.5184  156.2044   66.2123 H       968      M_A    0.0000
   6784 C         152.7758  156.7517   67.9192 C.3     969      M_A    0.0000
   6785 C         152.7438  157.8439   66.8547 C.3     969      M_A    0.0000
   6786 O         151.3972  158.2096   66.5568 O.3     969      M_A    0.0000
   6787 H         151.8546  156.7881   68.5131 H       969      M_A    0.0000
   6788 H         153.5962  156.9304   68.6236 H       969      M_A    0.0000
   6789 H         153.1744  157.4661   65.9186 H       969      M_A    0.0000
   6790 H         153.3483  158.7167   67.1411 H       969      M_A    0.0000
   6791 C         151.3065  159.5314   66.0721 C.3     970      M_A    0.0000
   6792 C         152.4443  159.8625   65.1113 C.3     970      M_A    0.0000
   6793 O         151.9906  160.7480   64.0886 O.3     970      M_A    0.0000
   6794 H         150.3438  159.6678   65.5649 H       970      M_A    0.0000
   6795 H         151.3049  160.2308   66.9158 H       970      M_A    0.0000
   6796 H         152.7805  158.9504   64.6019 H       970      M_A    0.0000
   6797 H         153.3235  160.2636   65.6360 H       970      M_A    0.0000
   6798 C         152.0715  162.0984   64.4888 C.3     971      M_A    0.0000
   6799 C         150.8143  162.5475   65.2270 C.3     971      M_A    0.0000
   6800 O         151.0494  163.7800   65.9065 O.3     971      M_A    0.0000
   6801 H         152.9472  162.2347   65.1348 H       971      M_A    0.0000
   6802 H         152.2434  162.7304   63.6101 H       971      M_A    0.0000
   6803 H         150.5533  161.8144   66.0008 H       971      M_A    0.0000
   6804 H         149.9440  162.6116   64.5580 H       971      M_A    0.0000
   6805 C         150.5156  163.7703   67.2124 C.3     972      M_A    0.0000
   6806 C         151.4894  164.3604   68.2276 C.3     972      M_A    0.0000
   6807 O         152.1413  165.5072   67.6838 O.3     972      M_A    0.0000
   6808 H         149.5781  164.3391   67.2265 H       972      M_A    0.0000
   6809 H         150.2502  162.7442   67.4912 H       972      M_A    0.0000
   6810 H         152.2808  163.6340   68.4522 H       972      M_A    0.0000
   6811 H         150.9993  164.5872   69.1855 H       972      M_A    0.0000
   6812 C         151.3605  166.1335   66.6897 C.3     973      M_A    0.0000
   6813 C         150.3943  167.1525   67.2857 C.3     973      M_A    0.0000
   6814 O         150.4876  168.3941   66.5888 O.3     973      M_A    0.0000
   6815 H         152.0203  166.6292   65.9674 H       973      M_A    0.0000
   6816 H         150.8106  165.3731   66.1237 H       973      M_A    0.0000
   6817 H         150.6686  167.3628   68.3273 H       973      M_A    0.0000
   6818 H         149.3613  166.7763   67.3097 H       973      M_A    0.0000
   6819 C         150.2914  169.4954   67.4485 C.3     974      M_A    0.0000
   6820 C         151.4920  169.7230   68.3617 C.3     974      M_A    0.0000
   6821 O         151.2926  170.8844   69.1662 O.3     974      M_A    0.0000
   6822 H         150.1070  170.3958   66.8502 H       974      M_A    0.0000
   6823 H         149.3848  169.3376   68.0436 H       974      M_A    0.0000
   6824 H         152.3886  169.9162   67.7591 H       974      M_A    0.0000
   6825 H         151.7179  168.8380   68.9741 H       974      M_A    0.0000
   6826 C         150.2643  170.6971   70.1138 C.3     975      M_A    0.0000
   6827 C         150.3437  171.7166   71.2459 C.3     975      M_A    0.0000
   6828 O         149.1057  172.4138   71.3758 O.3     975      M_A    0.0000
   6829 H         149.2909  170.7751   69.6148 H       975      M_A    0.0000
   6830 H         150.3174  169.6784   70.5143 H       975      M_A    0.0000
   6831 H         151.1014  172.4755   71.0128 H       975      M_A    0.0000
   6832 H         150.6523  171.2553   72.1952 H       975      M_A    0.0000
   6833 C         148.8858  172.8522   72.6986 C.3     976      M_A    0.0000
   6834 C         147.6635  172.1851   73.3215 C.3     976      M_A    0.0000
   6835 O         147.7170  172.2767   74.7444 O.3     976      M_A    0.0000
   6836 H         149.7733  172.6367   73.3058 H       976      M_A    0.0000
   6837 H         148.7711  173.9421   72.7082 H       976      M_A    0.0000
   6838 H         147.6596  171.1141   73.0820 H       976      M_A    0.0000
   6839 H         146.7232  172.5927   72.9228 H       976      M_A    0.0000
   6840 C         147.5436  173.6032   75.1925 C.3     977      M_A    0.0000
   6841 C         146.3746  173.7251   76.1649 C.3     977      M_A    0.0000
   6842 O         146.5492  174.8584   77.0139 O.3     977      M_A    0.0000
   6843 H         148.4649  173.9466   75.6782 H       977      M_A    0.0000
   6844 H         147.3927  174.2633   74.3308 H       977      M_A    0.0000
   6845 H         146.3440  172.8483   76.8242 H       977      M_A    0.0000
   6846 H         145.4063  173.7523   75.6443 H       977      M_A    0.0000
   6847 C         145.4238  175.7089   76.9933 C.3     978      M_A    0.0000
   6848 C         145.4196  176.6728   78.1757 C.3     978      M_A    0.0000
   6849 O         144.7244  177.8722   77.8380 O.3     978      M_A    0.0000
   6850 H         145.4134  176.2762   76.0548 H       978      M_A    0.0000
   6851 H         144.5092  175.1051   76.9910 H       978      M_A    0.0000
   6852 H         146.4475  176.9708   78.4186 H       978      M_A    0.0000
   6853 H         145.0111  176.2083   79.0849 H       978      M_A    0.0000
   6854 C         144.3442  178.6001   78.9851 C.3     979      M_A    0.0000
   6855 C         145.3662  178.4616   80.1092 C.3     979      M_A    0.0000
   6856 O         145.5163  179.7004   80.8011 O.3     979      M_A    0.0000
   6857 H         144.2261  179.6582   78.7222 H       979      M_A    0.0000
   6858 H         143.3583  178.2613   79.3230 H       979      M_A    0.0000
   6859 H         146.3519  178.2215   79.6906 H       979      M_A    0.0000
   6860 H         145.1153  177.6401   80.7958 H       979      M_A    0.0000
   6861 C         146.0999  180.6914   79.9840 C.3     980      M_A    0.0000
   6862 C         145.1547  181.8668   79.7554 C.3     980      M_A    0.0000
   6863 O         145.2719  182.8136   80.8164 O.3     980      M_A    0.0000
   6864 H         147.0263  181.0481   80.4500 H       980      M_A    0.0000
   6865 H         146.3950  180.2482   79.0262 H       980      M_A    0.0000
   6866 H         144.1143  181.5177   79.7679 H       980      M_A    0.0000
   6867 H         145.3100  182.3358   78.7730 H       980      M_A    0.0000
   6868 C         144.0506  182.9904   81.5002 C.3     981      M_A    0.0000
   6869 C         143.9409  184.3824   82.1145 C.3     981      M_A    0.0000
   6870 O         142.5730  184.7222   82.3368 O.3     981      M_A    0.0000
   6871 H         143.2177  182.8269   80.8058 H       981      M_A    0.0000
   6872 H         143.9517  182.2228   82.2762 H       981      M_A    0.0000
   6873 H         144.3344  185.1314   81.4156 H       981      M_A    0.0000
   6874 H         144.5376  184.4758   83.0334 H       981      M_A    0.0000
   6875 C         142.4237  185.6263   83.4094 C.3     982      M_A    0.0000
   6876 C         141.3284  186.6528   83.1377 C.3     982      M_A    0.0000
   6877 O         140.8474  187.2038   84.3629 O.3     982      M_A    0.0000
   6878 H         142.1889  185.0697   84.3247 H       982      M_A    0.0000
   6879 H         143.3786  186.1296   83.5989 H       982      M_A    0.0000
   6880 H         140.4687  186.1646   82.6613 H       982      M_A    0.0000
   6881 H         141.6613  187.4368   82.4422 H       982      M_A    0.0000
   6882 C         141.6219  188.3054   84.7836 C.3     983      M_A    0.0000
   6883 C         140.7801  189.3417   85.5216 C.3     983      M_A    0.0000
   6884 O         141.6118  190.1799   86.3226 O.3     983      M_A    0.0000
   6885 H         142.4301  187.9540   85.4362 H       983      M_A    0.0000
   6886 H         142.1116  188.7608   83.9154 H       983      M_A    0.0000
   6887 H         140.0916  188.8399   86.2133 H       983      M_A    0.0000
   6888 H         140.1528  189.9283   84.8348 H       983      M_A    0.0000
   6889 C         141.0041  191.4254   86.5866 C.3     984      M_A    0.0000
   6890 C         139.5052  191.2842   86.8328 C.3     984      M_A    0.0000
   6891 O         139.0999  192.1098   87.9237 O.3     984      M_A    0.0000
   6892 H         141.4801  191.8844   87.4614 H       984      M_A    0.0000
   6893 H         141.1898  192.1076   85.7492 H       984      M_A    0.0000
   6894 H         139.2698  190.2525   87.1236 H       984      M_A    0.0000
   6895 H         138.9173  191.4901   85.9266 H       984      M_A    0.0000
   6896 C         139.7867  193.3421   87.9336 C.3     985      M_A    0.0000
   6897 C         138.9765  194.4375   88.6199 C.3     985      M_A    0.0000
   6898 O         139.8421  195.3442   89.3014 O.3     985      M_A    0.0000
   6899 H         140.7484  193.2186   88.4459 H       985      M_A    0.0000
   6900 H         140.0279  193.6345   86.9053 H       985      M_A    0.0000
   6901 H         138.3269  193.9968   89.3869 H       985      M_A    0.0000
   6902 H         138.3117  194.9603   87.9172 H       985      M_A    0.0000
   6903 C         139.1208  196.3424   89.9897 C.3     986      M_A    0.0000
   6904 C         137.6647  196.4027   89.5389 C.3     986      M_A    0.0000
   6905 O         136.8886  197.1644   90.4627 O.3     986      M_A    0.0000
   6906 H         139.1655  196.1456   91.0676 H       986      M_A    0.0000
   6907 H         139.6064  197.3133   89.8398 H       986      M_A    0.0000
   6908 H         137.2332  195.3937   89.5329 H       986      M_A    0.0000
   6909 H         137.5663  196.7853   88.5126 H       986      M_A    0.0000
   6910 C         137.6386  197.5353   91.5986 C.3     987      M_A    0.0000
   6911 C         138.9532  196.7664   91.6861 C.3     987      M_A    0.0000
   6912 O         139.0937  196.1652   92.9725 O.3     987      M_A    0.0000
   6913 H         137.8426  198.6123   91.5642 H       987      M_A    0.0000
   6914 H         137.0400  197.3703   92.5017 H       987      M_A    0.0000
   6915 H         139.7985  197.4576   91.5755 H       987      M_A    0.0000
   6916 H         139.0529  196.0269   90.8785 H       987      M_A    0.0000
   6917 C         139.2372  194.7644   92.8850 C.3     988      M_A    0.0000
   6918 C         139.9281  194.3448   91.5913 C.3     988      M_A    0.0000
   6919 O         140.9306  193.3650   91.8573 O.3     988      M_A    0.0000
   6920 H         139.8139  194.4033   93.7451 H       988      M_A    0.0000
   6921 H         138.2521  194.2905   92.9617 H       988      M_A    0.0000
   6922 H         140.4476  195.2045   91.1492 H       988      M_A    0.0000
   6923 H         139.2101  193.9969   90.8345 H       988      M_A    0.0000
   6924 C         141.0688  192.4515   90.7911 C.3     989      M_A    0.0000
   6925 C         142.5147  191.9974   90.6171 C.3     989      M_A    0.0000
   6926 O         142.7972  191.7519   89.2402 O.3     989      M_A    0.0000
   6927 H         140.4278  191.5804   90.9727 H       989      M_A    0.0000
   6928 H         140.6999  192.9102   89.8666 H       989      M_A    0.0000
   6929 H         142.6725  191.0446   91.1383 H       989      M_A    0.0000
   6930 H         143.2267  192.7104   91.0574 H       989      M_A    0.0000
   6931 C         144.1507  192.0000   88.9290 C.3     990      M_A    0.0000
   6932 C         144.7220  190.9374   87.9954 C.3     990      M_A    0.0000
   6933 O         145.6328  190.0940   88.6991 O.3     990      M_A    0.0000
   6934 H         144.2416  192.9883   88.4626 H       990      M_A    0.0000
   6935 H         144.7357  192.0481   89.8545 H       990      M_A    0.0000
   6936 H         145.3010  191.4154   87.1950 H       990      M_A    0.0000
   6937 H         143.9313  190.3568   87.4984 H       990      M_A    0.0000
   6938 C         145.4424  188.7330   88.3801 C.3     991      M_A    0.0000
   6939 C         145.4764  188.4934   86.8739 C.3     991      M_A    0.0000
   6940 O         145.3648  187.0998   86.5888 O.3     991      M_A    0.0000
   6941 H         146.2204  188.1328   88.8669 H       991      M_A    0.0000
   6942 H         144.4898  188.3892   88.7989 H       991      M_A    0.0000
   6943 H         146.4435  188.8144   86.4662 H       991      M_A    0.0000
   6944 H         144.7103  189.0792   86.3457 H       991      M_A    0.0000
   6945 C         144.2646  186.5146   87.2502 C.3     992      M_A    0.0000
   6946 C         143.4437  185.6328   86.3143 C.3     992      M_A    0.0000
   6947 O         143.8871  184.2787   86.3896 O.3     992      M_A    0.0000
   6948 H         144.6243  185.9186   88.0976 H       992      M_A    0.0000
   6949 H         143.6356  187.3021   87.6805 H       992      M_A    0.0000
   6950 H         143.5954  185.9489   85.2743 H       992      M_A    0.0000
   6951 H         142.3646  185.7188   86.5076 H       992      M_A    0.0000
   6952 C         144.8307  183.9780   85.3850 C.3     993      M_A    0.0000
   6953 C         145.5468  182.6585   85.6560 C.3     993      M_A    0.0000
   6954 O         144.8547  181.5788   85.0306 O.3     993      M_A    0.0000
   6955 H         144.3249  183.9303   84.4131 H       993      M_A    0.0000
   6956 H         145.5560  184.7960   85.3079 H       993      M_A    0.0000
   6957 H         145.5418  182.4449   86.7325 H       993      M_A    0.0000
   6958 H         146.6036  182.6933   85.3543 H       993      M_A    0.0000
   6959 C         145.6752  180.8903   84.1124 C.3     994      M_A    0.0000
   6960 C         146.8945  180.2748   84.7919 C.3     994      M_A    0.0000
   6961 O         147.5331  179.3431   83.9201 O.3     994      M_A    0.0000
   6962 H         145.0905  180.1035   83.6206 H       994      M_A    0.0000
   6963 H         145.9883  181.5756   83.3166 H       994      M_A    0.0000
   6964 H         146.5815  179.7045   85.6758 H       994      M_A    0.0000
   6965 H         147.5960  181.0408   85.1528 H       994      M_A    0.0000
   6966 C         146.6791  178.9301   82.8758 C.3     995      M_A    0.0000
   6967 C         145.7754  177.7782   83.3042 C.3     995      M_A    0.0000
   6968 O         146.4832  176.5408   83.2432 O.3     995      M_A    0.0000
   6969 H         146.0657  179.7788   82.5501 H       995      M_A    0.0000
   6970 H         147.2793  178.6401   82.0059 H       995      M_A    0.0000
   6971 H         144.9326  177.6854   82.6073 H       995      M_A    0.0000
   6972 H         145.3356  177.9467   84.2979 H       995      M_A    0.0000
   6973 C         146.7391  176.1468   81.9130 C.3     996      M_A    0.0000
   6974 C         147.2579  174.7143   81.8356 C.3     996      M_A    0.0000
   6975 O         146.2006  173.7879   82.0799 O.3     996      M_A    0.0000
   6976 H         145.8194  176.2385   81.3229 H       996      M_A    0.0000
   6977 H         147.4589  176.8374   81.4592 H       996      M_A    0.0000
   6978 H         148.0041  174.5441   82.6222 H       996      M_A    0.0000
   6979 H         147.7650  174.5103   80.8814 H       996      M_A    0.0000
   6980 C         146.0927  172.8300   81.0498 C.3     997      M_A    0.0000
   6981 C         144.6711  172.2913   80.9228 C.3     997      M_A    0.0000
   6982 O         144.5481  171.4811   79.7547 O.3     997      M_A    0.0000
   6983 H         146.4026  173.2810   80.0994 H       997      M_A    0.0000
   6984 H         146.7951  172.0101   81.2380 H       997      M_A    0.0000
   6985 H         143.9663  173.1230   80.7960 H       997      M_A    0.0000
   6986 H         144.3519  171.7528   81.8268 H       997      M_A    0.0000
   6987 C         143.2071  171.1230   79.5024 C.3     998      M_A    0.0000
   6988 C         142.5782  170.4051   80.6924 C.3     998      M_A    0.0000
   6989 O         141.1605  170.3420   80.5435 O.3     998      M_A    0.0000
   6990 H         142.6279  172.0240   79.2669 H       998      M_A    0.0000
   6991 H         143.1595  170.4914   78.6081 H       998      M_A    0.0000
   6992 H         142.7660  170.9724   81.6130 H       998      M_A    0.0000
   6993 H         143.0152  169.4085   80.8508 H       998      M_A    0.0000
   6994 C         140.7802  169.4792   79.4940 C.3     999      M_A    0.0000
   6995 C         139.2648  169.3294   79.4039 C.3     999      M_A    0.0000
   6996 O         138.8432  169.3431   78.0409 O.3     999      M_A    0.0000
   6997 H         141.1697  169.8668   78.5450 H       999      M_A    0.0000
   6998 H         141.2519  168.5003   79.6365 H       999      M_A    0.0000
   6999 H         138.7753  170.1852   79.8861 H       999      M_A    0.0000
   7000 H         138.9069  168.4332   79.9313 H       999      M_A    0.0000
   7001 C         137.5896  168.7184   77.8722 C.3    1000      M_A    0.0000
   7002 C         137.0656  168.8738   76.4479 C.3    1000      M_A    0.0000
   7003 O         136.2962  167.7321   76.0731 O.3    1000      M_A    0.0000
   7004 H         137.6775  167.6535   78.1188 H      1000      M_A    0.0000
   7005 H         136.8736  169.1361   78.5890 H      1000      M_A    0.0000
   7006 H         137.9059  168.9233   75.7439 H      1000      M_A    0.0000
   7007 H         136.4989  169.8070   76.3165 H      1000      M_A    0.0000
   7008 C         135.1655  167.5658   76.9002 C.3    1001      M_A    0.0000
   7009 C         134.1270  166.6475   76.2634 C.3    1001      M_A    0.0000
   7010 O         134.1001  165.3872   76.9318 O.3    1001      M_A    0.0000
   7011 H         135.4792  167.1536   77.8669 H      1001      M_A    0.0000
   7012 H         134.7249  168.5452   77.1185 H      1001      M_A    0.0000
   7013 H         134.4023  166.4377   75.2219 H      1001      M_A    0.0000
   7014 H         133.1308  167.1118   76.2306 H      1001      M_A    0.0000
   7015 C         132.8470  164.7517   76.8049 C.3    1002      M_A    0.0000
   7016 C         132.8072  163.8105   75.6051 C.3    1002      M_A    0.0000
   7017 O         132.6643  162.4582   76.0375 O.3    1002      M_A    0.0000
   7018 H         132.6291  164.1904   77.7215 H      1002      M_A    0.0000
   7019 H         132.0597  165.5094   76.7207 H      1002      M_A    0.0000
   7020 H         133.7581  163.8603   75.0594 H      1002      M_A    0.0000
   7021 H         132.0247  164.0922   74.8857 H      1002      M_A    0.0000
   7022 C         132.6796  161.5555   74.9535 C.3    1003      M_A    0.0000
   7023 C         134.0465  161.5030   74.2783 C.3    1003      M_A    0.0000
   7024 O         134.3913  160.1565   73.9558 O.3    1003      M_A    0.0000
   7025 H         132.4052  160.5550   75.3091 H      1003      M_A    0.0000
   7026 H         131.9079  161.8405   74.2294 H      1003      M_A    0.0000
   7027 H         134.8192  161.8613   74.9704 H      1003      M_A    0.0000
   7028 H         134.0962  162.1579   73.3963 H      1003      M_A    0.0000
   7029 C         135.4689  160.0931   73.0474 C.3    1004      M_A    0.0000
   7030 C         136.1478  158.7271   73.0674 C.3    1004      M_A    0.0000
   7031 O         137.3399  158.7521   72.2837 O.3    1004      M_A    0.0000
   7032 H         135.1052  160.3095   72.0357 H      1004      M_A    0.0000
   7033 H         136.1926  160.8815   73.2831 H      1004      M_A    0.0000
   7034 H         135.4923  157.9772   72.6068 H      1004      M_A    0.0000
   7035 H         136.3420  158.3781   74.0920 H      1004      M_A    0.0000
   7036 C         137.2328  157.9357   71.1381 C.3    1005      M_A    0.0000
   7037 C         138.6007  157.4997   70.6224 C.3    1005      M_A    0.0000
   7038 O         138.6510  156.0806   70.4826 O.3    1005      M_A    0.0000
   7039 H         136.6293  157.0516   71.3763 H      1005      M_A    0.0000
   7040 H         136.6847  158.4734   70.3560 H      1005      M_A    0.0000
   7041 H         139.3768  157.7649   71.3517 H      1005      M_A    0.0000
   7042 H         138.8706  158.0104   69.6867 H      1005      M_A    0.0000
   7043 C         137.8484  155.6291   69.4138 C.3    1006      M_A    0.0000
   7044 C         138.3911  154.3416   68.8015 C.3    1006      M_A    0.0000
   7045 O         137.7789  153.2048   69.4087 O.3    1006      M_A    0.0000
   7046 H         136.8248  155.4647   69.7715 H      1006      M_A    0.0000
   7047 H         137.7794  156.4136   68.6517 H      1006      M_A    0.0000
   7048 H         139.4666  154.2563   69.0031 H      1006      M_A    0.0000
   7049 H         138.2812  154.3269   67.7075 H      1006      M_A    0.0000
   7050 C         138.6550  152.1001   69.4590 C.3    1007      M_A    0.0000
   7051 C         137.9659  150.8541   70.0065 C.3    1007      M_A    0.0000
   7052 O         138.4775  149.6828   69.3723 O.3    1007      M_A    0.0000
   7053 H         139.0415  151.8961   68.4532 H      1007      M_A    0.0000
   7054 H         139.5275  152.3531   70.0720 H      1007      M_A    0.0000
   7055 H         136.8940  150.8871   69.7735 H      1007      M_A    0.0000
   7056 H         138.0407  150.7892   71.1017 H      1007      M_A    0.0000
   7057 C         139.0087  148.7688   70.3065 C.3    1008      M_A    0.0000
   7058 C         139.5332  147.5064   69.6295 C.3    1008      M_A    0.0000
   7059 O         140.9230  147.3351   69.9036 O.3    1008      M_A    0.0000
   7060 H         139.8189  149.2507   70.8669 H      1008      M_A    0.0000
   7061 H         138.2408  148.5136   71.0455 H      1008      M_A    0.0000
   7062 H         139.4440  147.6020   68.5399 H      1008      M_A    0.0000
   7063 H         138.9509  146.6164   69.9089 H      1008      M_A    0.0000
   7064 C         141.5433  146.4857   68.9634 C.3    1009      M_A    0.0000
   7065 C         140.5645  146.0142   67.8925 C.3    1009      M_A    0.0000
   7066 O         141.2705  145.5206   66.7551 O.3    1009      M_A    0.0000
   7067 H         142.3799  147.0148   68.4913 H      1009      M_A    0.0000
   7068 H         141.9837  145.6263   69.4816 H      1009      M_A    0.0000
   7069 H         139.9626  146.8606   67.5377 H      1009      M_A    0.0000
   7070 H         139.8524  145.2726   68.2825 H      1009      M_A    0.0000
   7071 C         142.1957  146.4641   66.2607 C.3    1010      M_A    0.0000
   7072 C         143.0401  145.8902   65.1272 C.3    1010      M_A    0.0000
   7073 O         143.1584  146.8367   64.0661 O.3    1010      M_A    0.0000
   7074 H         141.6569  147.3512   65.9067 H      1010      M_A    0.0000
   7075 H         142.8392  146.8081   67.0784 H      1010      M_A    0.0000
   7076 H         142.5435  145.0096   64.7002 H      1010      M_A    0.0000
   7077 H         144.0243  145.5480   65.4786 H      1010      M_A    0.0000
   7078 C         144.1956  146.4969   63.1721 C.3    1011      M_A    0.0000
   7079 C         144.3837  144.9866   63.0692 C.3    1011      M_A    0.0000
   7080 O         144.7928  144.6243   61.7512 O.3    1011      M_A    0.0000
   7081 H         143.9713  146.9091   62.1809 H      1011      M_A    0.0000
   7082 H         145.1273  146.9756   63.4942 H      1011      M_A    0.0000
   7083 H         143.4272  144.4780   63.2453 H      1011      M_A    0.0000
   7084 H         145.0795  144.6049   63.8303 H      1011      M_A    0.0000
   7085 C         146.0733  144.0323   61.7425 C.3    1012      M_A    0.0000
   7086 C         146.1004  142.7277   62.5327 C.3    1012      M_A    0.0000
   7087 O         147.0000  141.7988   61.9296 O.3    1012      M_A    0.0000
   7088 H         146.3796  143.8426   60.7066 H      1012      M_A    0.0000
   7089 H         146.8056  144.7391   62.1491 H      1012      M_A    0.0000
   7090 H         145.1098  142.2561   62.5095 H      1012      M_A    0.0000
   7091 H         146.3375  142.8931   63.5937 H      1012      M_A    0.0000
   7092 C         148.1668  142.4318   61.4518 C.3    1013      M_A    0.0000
   7093 C         149.4318  141.7348   61.9428 C.3    1013      M_A    0.0000
   7094 O         150.3811  141.6216   60.8836 O.3    1013      M_A    0.0000
   7095 H         148.1527  142.4411   60.3553 H      1013      M_A    0.0000
   7096 H         148.1660  143.4827   61.7626 H      1013      M_A    0.0000
   7097 H         149.1961  140.7096   62.2557 H      1013      M_A    0.0000
   7098 H         149.8623  142.2337   62.8232 H      1013      M_A    0.0000
   7099 C         151.3446  140.6249   61.1456 C.3    1014      M_A    0.0000
   7100 C         151.7232  140.5764   62.6226 C.3    1014      M_A    0.0000
   7101 O         152.3591  139.3374   62.9332 O.3    1014      M_A    0.0000
   7102 H         150.9533  139.6494   60.8328 H      1014      M_A    0.0000
   7103 H         152.2335  140.8049   60.5304 H      1014      M_A    0.0000
   7104 H         150.8184  140.6217   63.2420 H      1014      M_A    0.0000
   7105 H         152.3416  141.4362   62.9183 H      1014      M_A    0.0000
   7106 C         153.3499  139.0033   61.9860 C.3    1015      M_A    0.0000
   7107 C         154.2939  137.9251   62.5090 C.3    1015      M_A    0.0000
   7108 O         154.8357  137.1699   61.4264 O.3    1015      M_A    0.0000
   7109 H         152.8692  138.6570   61.0632 H      1015      M_A    0.0000
   7110 H         153.9133  139.9030   61.7135 H      1015      M_A    0.0000
   7111 H         153.7389  137.2133   63.1333 H      1015      M_A    0.0000
   7112 H         155.0844  138.3438   63.1485 H      1015      M_A    0.0000
   7113 C         156.0435  137.7236   60.9521 C.3    1016      M_A    0.0000
   7114 C         156.7130  136.8230   59.9186 C.3    1016      M_A    0.0000
   7115 O         157.6945  137.5526   59.1836 O.3    1016      M_A    0.0000
   7116 H         155.8442  138.7074   60.5103 H      1016      M_A    0.0000
   7117 H         156.7196  137.9030   61.7957 H      1016      M_A    0.0000
   7118 H         155.9716  136.4801   59.1857 H      1016      M_A    0.0000
   7119 H         157.1369  135.9166   60.3744 H      1016      M_A    0.0000
   7120 C         158.4308  136.7172   58.3174 C.3    1017      M_A    0.0000
   7121 C         158.1494  135.2408   58.5784 C.3    1017      M_A    0.0000
   7122 O         158.9473  134.4231   57.7235 O.3    1017      M_A    0.0000
   7123 H         158.1827  136.9620   57.2776 H      1017      M_A    0.0000
   7124 H         159.5007  136.9266   58.4297 H      1017      M_A    0.0000
   7125 H         157.1040  135.0111   58.3361 H      1017      M_A    0.0000
   7126 H         158.2850  134.9760   59.6370 H      1017      M_A    0.0000
   7127 C         159.8457  135.1896   56.9518 C.3    1018      M_A    0.0000
   7128 C         160.5365  136.2638   57.7861 C.3    1018      M_A    0.0000
   7129 O         161.6802  135.7230   58.4460 O.3    1018      M_A    0.0000
   7130 H         160.5983  134.5282   56.5057 H      1018      M_A    0.0000
   7131 H         159.3093  135.6459   56.1122 H      1018      M_A    0.0000
   7132 H         159.8615  136.6140   58.5774 H      1018      M_A    0.0000
   7133 H         160.7936  137.1494   57.1870 H      1018      M_A    0.0000
   7134 C         161.8867  134.3676   58.1136 C.3    1019      M_A    0.0000
   7135 C         161.4315  134.0568   56.6911 C.3    1019      M_A    0.0000
   7136 O         162.2264  133.0127   56.1309 O.3    1019      M_A    0.0000
   7137 H         162.9505  134.1243   58.2220 H      1019      M_A    0.0000
   7138 H         161.3568  133.7305   58.8307 H      1019      M_A    0.0000
   7139 H         161.5812  134.9352   56.0505 H      1019      M_A    0.0000
   7140 H         160.3585  133.8209   56.6438 H      1019      M_A    0.0000
   7141 C         162.3155  133.1158   54.7267 C.3    1020      M_A    0.0000
   7142 C         163.5969  133.8189   54.2898 C.3    1020      M_A    0.0000
   7143 O         164.7386  133.0433   54.6516 O.3    1020      M_A    0.0000
   7144 H         162.2759  132.1129   54.2849 H      1020      M_A    0.0000
   7145 H         161.4386  133.6495   54.3429 H      1020      M_A    0.0000
   7146 H         163.6960  134.7766   54.8165 H      1020      M_A    0.0000
   7147 H         163.5910  134.0574   53.2163 H      1020      M_A    0.0000
   7148 C         164.9040  131.9257   53.8066 C.3    1021      M_A    0.0000
   7149 C         164.5971  130.6178   54.5294 C.3    1021      M_A    0.0000
   7150 O         164.4004  129.5633   53.5886 O.3    1021      M_A    0.0000
   7151 H         164.2469  132.0283   52.9346 H      1021      M_A    0.0000
   7152 H         165.9270  131.9127   53.4138 H      1021      M_A    0.0000
   7153 H         163.6570  130.7113   55.0880 H      1021      M_A    0.0000
   7154 H         165.3703  130.3641   55.2690 H      1021      M_A    0.0000
   7155 C         163.6830  129.9980   52.4543 C.3    1022      M_A    0.0000
   7156 C         162.3381  129.2891   52.3278 C.3    1022      M_A    0.0000
   7157 O         162.4907  127.8882   52.5517 O.3    1022      M_A    0.0000
   7158 H         163.5246  131.0813   52.5170 H      1022      M_A    0.0000
   7159 H         164.2866  129.8329   51.5546 H      1022      M_A    0.0000
   7160 H         161.9534  129.3973   51.3057 H      1022      M_A    0.0000
   7161 H         161.5775  129.7264   52.9906 H      1022      M_A    0.0000
   7162 C         161.5933  127.1303   51.7703 C.3    1023      M_A    0.0000
   7163 C         160.1814  127.7069   51.8085 C.3    1023      M_A    0.0000
   7164 O         159.4391  127.2825   50.6662 O.3    1023      M_A    0.0000
   7165 H         161.9507  127.0980   50.7340 H      1023      M_A    0.0000
   7166 H         161.5901  126.0920   52.1209 H      1023      M_A    0.0000
   7167 H         160.2238  128.8024   51.7584 H      1023      M_A    0.0000
   7168 H         159.6611  127.4618   52.7457 H      1023      M_A    0.0000
   7169 C         159.6917  128.0977   49.5428 C.3    1024      M_A    0.0000
   7170 C         158.8213  127.7080   48.3521 C.3    1024      M_A    0.0000
   7171 O         158.4894  128.8607   47.5795 O.3    1024      M_A    0.0000
   7172 H         159.5091  129.1465   49.8058 H      1024      M_A    0.0000
   7173 H         160.7527  128.0338   49.2759 H      1024      M_A    0.0000
   7174 H         157.8701  127.2900   48.7055 H      1024      M_A    0.0000
   7175 H         159.2905  126.9270   47.7364 H      1024      M_A    0.0000
   7176 C         159.4846  129.1578   46.6247 C.3    1025      M_A    0.0000
   7177 C         160.1979  130.4694   46.9382 C.3    1025      M_A    0.0000
   7178 O         161.4175  130.5609   46.2034 O.3    1025      M_A    0.0000
   7179 H         160.2141  128.3396   46.5928 H      1025      M_A    0.0000
   7180 H         159.0333  129.1989   45.6269 H      1025      M_A    0.0000
   7181 H         160.4751  130.4996   47.9997 H      1025      M_A    0.0000
   7182 H         159.5517  131.3420   46.7642 H      1025      M_A    0.0000
   7183 C         161.3071  129.9715   44.9264 C.3    1026      M_A    0.0000
   7184 C         162.6177  130.0514   44.1496 C.3    1026      M_A    0.0000
   7185 O         162.7384  128.9415   43.2611 O.3    1026      M_A    0.0000
   7186 H         161.0057  128.9226   45.0345 H      1026      M_A    0.0000
   7187 H         160.5021  130.4606   44.3663 H      1026      M_A    0.0000
   7188 H         163.4669  129.9855   44.8417 H      1026      M_A    0.0000
   7189 H         162.7257  131.0094   43.6207 H      1026      M_A    0.0000
   7190 C         161.5432  128.7055   42.5497 C.3    1027      M_A    0.0000
   7191 C         161.7705  127.7991   41.3439 C.3    1027      M_A    0.0000
   7192 O         161.4221  126.4522   41.6607 O.3    1027      M_A    0.0000
   7193 H         160.8046  128.2495   43.2199 H      1027      M_A    0.0000
   7194 H         161.1123  129.6616   42.2314 H      1027      M_A    0.0000
   7195 H         162.8359  127.7876   41.0806 H      1027      M_A    0.0000
   7196 H         161.2372  128.1581   40.4518 H      1027      M_A    0.0000
   7197 C         161.8562  125.5495   40.6672 C.3    1028      M_A    0.0000
   7198 C         163.3721  125.3790   40.6791 C.3    1028      M_A    0.0000
   7199 O         163.7371  124.1279   40.0983 O.3    1028      M_A    0.0000
   7200 H         161.3743  124.5769   40.8236 H      1028      M_A    0.0000
   7201 H         161.5200  125.8983   39.6842 H      1028      M_A    0.0000
   7202 H         163.7375  125.3563   41.7137 H      1028      M_A    0.0000
   7203 H         163.8855  126.2196   40.1901 H      1028      M_A    0.0000
   7204 C         165.0703  124.1316   39.6370 C.3    1029      M_A    0.0000
   7205 C         165.4687  122.7842   39.0430 C.3    1029      M_A    0.0000
   7206 O         166.7576  122.8688   38.4368 O.3    1029      M_A    0.0000
   7207 H         165.1921  124.9180   38.8824 H      1029      M_A    0.0000
   7208 H         165.7416  124.3978   40.4613 H      1029      M_A    0.0000
   7209 H         164.7700  122.5071   38.2433 H      1029      M_A    0.0000
   7210 H         165.4213  121.9755   39.7866 H      1029      M_A    0.0000
   7211 C         166.9719  121.8267   37.5102 C.3    1030      M_A    0.0000
   7212 C         166.3231  120.5225   37.9634 C.3    1030      M_A    0.0000
   7213 O         166.7233  119.4466   37.1159 O.3    1030      M_A    0.0000
   7214 H         166.5685  122.1196   36.5334 H      1030      M_A    0.0000
   7215 H         168.0485  121.6851   37.3620 H      1030      M_A    0.0000
   7216 H         165.2320  120.5965   37.8723 H      1030      M_A    0.0000
   7217 H         166.5294  120.3052   39.0214 H      1030      M_A    0.0000
   7218 C         166.3298  118.1949   37.6344 C.3    1031      M_A    0.0000
   7219 C         166.1858  117.1460   36.5361 C.3    1031      M_A    0.0000
   7220 O         166.2621  115.8328   37.0887 O.3    1031      M_A    0.0000
   7221 H         167.0683  117.8580   38.3718 H      1031      M_A    0.0000
   7222 H         165.3865  118.3059   38.1810 H      1031      M_A    0.0000
   7223 H         167.0192  117.2305   35.8270 H      1031      M_A    0.0000
   7224 H         165.2669  117.2874   35.9489 H      1031      M_A    0.0000
   7225 C         165.8348  114.8506   36.1705 C.3    1032      M_A    0.0000
   7226 C         166.4321  113.4825   36.4845 C.3    1032      M_A    0.0000
   7227 O         165.6325  112.4473   35.9144 O.3    1032      M_A    0.0000
   7228 H         164.7401  114.7880   36.1877 H      1032      M_A    0.0000
   7229 H         166.1035  115.1591   35.1538 H      1032      M_A    0.0000
   7230 H         166.4278  113.3129   37.5688 H      1032      M_A    0.0000
   7231 H         167.4818  113.4078   36.1657 H      1032      M_A    0.0000
   7232 C         166.2052  111.1729   36.1098 C.3    1033      M_A    0.0000
   7233 C         165.5039  110.1026   35.2793 C.3    1033      M_A    0.0000
   7234 O         166.0746  108.8202   35.5356 O.3    1033      M_A    0.0000
   7235 H         167.2688  111.2074   35.8450 H      1033      M_A    0.0000
   7236 H         166.1675  110.9145   37.1742 H      1033      M_A    0.0000
   7237 H         165.6566  110.2993   34.2105 H      1033      M_A    0.0000
   7238 H         164.4161  110.1031   35.4398 H      1033      M_A    0.0000
   7239 C         165.6325  107.8534   34.6081 C.3    1034      M_A    0.0000
   7240 C         165.4008  106.4980   35.2687 C.3    1034      M_A    0.0000
   7241 O         164.3664  105.7848   34.5924 O.3    1034      M_A    0.0000
   7242 H         164.7038  108.1982   34.1378 H      1034      M_A    0.0000
   7243 H         166.3651  107.7620   33.7982 H      1034      M_A    0.0000
   7244 H         165.0534  106.6394   36.3001 H      1034      M_A    0.0000
   7245 H         166.3261  105.9075   35.3341 H      1034      M_A    0.0000
   7246 C         163.9230  104.6711   35.3362 C.3    1035      M_A    0.0000
   7247 C         163.5414  103.5018   34.4338 C.3    1035      M_A    0.0000
   7248 O         163.1934  102.3611   35.2172 O.3    1035      M_A    0.0000
   7249 H         164.7128  104.3591   36.0302 H      1035      M_A    0.0000
   7250 H         163.0713  104.9641   35.9605 H      1035      M_A    0.0000
   7251 H         164.4032  103.2044   33.8229 H      1035      M_A    0.0000
   7252 H         162.7419  103.7696   33.7279 H      1035      M_A    0.0000
   7253 C         162.2349  101.5524   34.5710 C.3    1036      M_A    0.0000
   7254 C         162.5600  101.3584   33.0932 C.3    1036      M_A    0.0000
   7255 O         162.1211  100.0747   32.6512 O.3    1036      M_A    0.0000
   7256 H         162.1865  100.5767   35.0694 H      1036      M_A    0.0000
   7257 H         161.2413  102.0000   34.6867 H      1036      M_A    0.0000
   7258 H         163.6471  101.3803   32.9438 H      1036      M_A    0.0000
   7259 H         162.1477  102.1657   32.4708 H      1036      M_A    0.0000
   7260 C         161.9085  100.0434   31.2569 C.3    1037      M_A    0.0000
   7261 C         162.6946   98.9198   30.5884 C.3    1037      M_A    0.0000
   7262 O         162.9959   99.2594   29.2357 O.3    1037      M_A    0.0000
   7263 H         160.8382   99.9157   31.0548 H      1037      M_A    0.0000
   7264 H         162.1841  101.0113   30.8232 H      1037      M_A    0.0000
   7265 H         162.0838   98.0089   30.5483 H      1037      M_A    0.0000
   7266 H         163.6008   98.6578   31.1534 H      1037      M_A    0.0000
   7267 C         164.0413   98.4678   28.7154 C.3    1038      M_A    0.0000
   7268 C         164.0668   97.0779   29.3437 C.3    1038      M_A    0.0000
   7269 O         165.1232   96.2982   28.7852 O.3    1038      M_A    0.0000
   7270 H         163.9245   98.3793   27.6286 H      1038      M_A    0.0000
   7271 H         164.9990   98.9757   28.8757 H      1038      M_A    0.0000
   7272 H         163.1355   96.5456   29.1115 H      1038      M_A    0.0000
   7273 H         164.1302   97.1223   30.4406 H      1038      M_A    0.0000
   7274 C         166.3327   96.4697   29.4909 C.3    1039      M_A    0.0000
   7275 C         167.1176   95.1659   29.5962 C.3    1039      M_A    0.0000
   7276 O         168.3314   95.2538   28.8512 O.3    1039      M_A    0.0000
   7277 H         166.9435   97.2285   28.9871 H      1039      M_A    0.0000
   7278 H         166.1199   96.8678   30.4895 H      1039      M_A    0.0000
   7279 H         166.5412   94.3456   29.1498 H      1039      M_A    0.0000
   7280 H         167.3020   94.8789   30.6416 H      1039      M_A    0.0000
   7281 C         169.2058   94.1859   29.1432 C.3    1040      M_A    0.0000
   7282 C         168.7425   92.8818   28.5013 C.3    1040      M_A    0.0000
   7283 O         169.8546   92.1714   27.9586 O.3    1040      M_A    0.0000
   7284 H         170.2137   94.4336   28.7893 H      1040      M_A    0.0000
   7285 H         169.2880   94.0673   30.2296 H      1040      M_A    0.0000
   7286 H         168.0738   93.0972   27.6582 H      1040      M_A    0.0000
   7287 H         168.1650   92.2603   29.2008 H      1040      M_A    0.0000
   7288 C         169.4450   91.0592   27.1934 C.3    1041      M_A    0.0000
   7289 C         170.5810   90.0617   26.9895 C.3    1041      M_A    0.0000
   7290 O         170.0595   88.7657   26.6990 O.3    1041      M_A    0.0000
   7291 H         168.6040   90.5635   27.6930 H      1041      M_A    0.0000
   7292 H         169.0614   91.4025   26.2259 H      1041      M_A    0.0000
   7293 H         171.1598   89.9599   27.9163 H      1041      M_A    0.0000
   7294 H         171.2905   90.3967   26.2190 H      1041      M_A    0.0000
   7295 C         171.0680   87.8777   26.2692 C.3    1042      M_A    0.0000
   7296 C         172.2069   87.7810   27.2796 C.3    1042      M_A    0.0000
   7297 O         173.3398   87.1419   26.6932 O.3    1042      M_A    0.0000
   7298 H         170.6331   86.8840   26.1073 H      1042      M_A    0.0000
   7299 H         171.4500   88.2024   25.2947 H      1042      M_A    0.0000
   7300 H         171.9029   87.1524   28.1263 H      1042      M_A    0.0000
   7301 H         172.4671   88.7620   27.7027 H      1042      M_A    0.0000
   7302 C         174.1793   88.0632   26.0322 C.3    1043      M_A    0.0000
   7303 C         173.3876   89.2171   25.4247 C.3    1043      M_A    0.0000
   7304 O         174.0810   89.7598   24.3019 O.3    1043      M_A    0.0000
   7305 H         174.9183   88.4557   26.7411 H      1043      M_A    0.0000
   7306 H         174.7521   87.5439   25.2556 H      1043      M_A    0.0000
   7307 H         173.2965   90.0324   26.1536 H      1043      M_A    0.0000
   7308 H         172.3611   88.9210   25.1644 H      1043      M_A    0.0000
   7309 C         173.1936   90.2980   23.3462 C.3    1044      M_A    0.0000
   7310 C         172.0839   91.1156   23.9998 C.3    1044      M_A    0.0000
   7311 O         172.4078   92.5050   23.9739 O.3    1044      M_A    0.0000
   7312 H         173.7529   90.9291   22.6451 H      1044      M_A    0.0000
   7313 H         172.7660   89.4864   22.7466 H      1044      M_A    0.0000
   7314 H         171.9911   90.8409   25.0583 H      1044      M_A    0.0000
   7315 H         171.1030   90.9182   23.5438 H      1044      M_A    0.0000
   7316 C         171.4995   93.2706   24.7349 C.3    1045      M_A    0.0000
   7317 C         172.1811   93.9450   25.9214 C.3    1045      M_A    0.0000
   7318 O         172.0038   95.3594   25.8596 O.3    1045      M_A    0.0000
   7319 H         171.0379   94.0311   24.0936 H      1045      M_A    0.0000
   7320 H         170.6805   92.6295   25.0802 H      1045      M_A    0.0000
   7321 H         173.2635   93.7683   25.8805 H      1045      M_A    0.0000
   7322 H         171.8385   93.5338   26.8821 H      1045      M_A    0.0000
   7323 C         170.7913   95.7637   26.4567 C.3    1046      M_A    0.0000
   7324 C         170.8715   97.1890   26.9945 C.3    1046      M_A    0.0000
   7325 O         170.3316   97.2546   28.3136 O.3    1046      M_A    0.0000
   7326 H         169.9815   95.6921   25.7207 H      1046      M_A    0.0000
   7327 H         170.5301   95.0672   27.2615 H      1046      M_A    0.0000
   7328 H         170.2570   97.8565   26.3769 H      1046      M_A    0.0000
   7329 H         171.8953   97.5882   26.9537 H      1046      M_A    0.0000
   7330 C         170.6669   96.1158   29.0759 C.3    1047      M_A    0.0000
   7331 C         170.7486   96.4343   30.5655 C.3    1047      M_A    0.0000
   7332 O         170.5188   95.2579   31.3396 O.3    1047      M_A    0.0000
   7333 H         169.9193   95.3316   28.9067 H      1047      M_A    0.0000
   7334 H         171.6196   95.7062   28.7214 H      1047      M_A    0.0000
   7335 H         169.9567   97.1429   30.8401 H      1047      M_A    0.0000
   7336 H         171.6996   96.9175   30.8324 H      1047      M_A    0.0000
   7337 C         171.2056   95.2969   32.5713 C.3    1048      M_A    0.0000
   7338 C         170.2526   95.4951   33.7460 C.3    1048      M_A    0.0000
   7339 O         170.6065   96.6649   34.4824 O.3    1048      M_A    0.0000
   7340 H         171.7667   94.3642   32.7048 H      1048      M_A    0.0000
   7341 H         171.9530   96.0981   32.5480 H      1048      M_A    0.0000
   7342 H         170.3404   94.6533   34.4446 H      1048      M_A    0.0000
   7343 H         169.2013   95.5196   33.4244 H      1048      M_A    0.0000
   7344 C         170.6607   97.8085   33.6580 C.3    1049      M_A    0.0000
   7345 C         169.2964   98.4781   33.5266 C.3    1049      M_A    0.0000
   7346 O         168.8710   98.9932   34.7874 O.3    1049      M_A    0.0000
   7347 H         171.3835   98.5218   34.0722 H      1049      M_A    0.0000
   7348 H         171.0445   97.5292   32.6702 H      1049      M_A    0.0000
   7349 H         168.5439   97.7376   33.2270 H      1049      M_A    0.0000
   7350 H         169.2912   99.2542   32.7476 H      1049      M_A    0.0000
   7351 C         168.2525  100.2546   34.6582 C.3    1050      M_A    0.0000
   7352 C         168.3549  101.0707   35.9430 C.3    1050      M_A    0.0000
   7353 O         168.2801  102.4660   35.6539 O.3    1050      M_A    0.0000
   7354 H         168.7190  100.8058   33.8329 H      1050      M_A    0.0000
   7355 H         167.2024  100.1196   34.3755 H      1050      M_A    0.0000
   7356 H         169.3326  100.9059   36.4135 H      1050      M_A    0.0000
   7357 H         167.6017  100.7682   36.6849 H      1050      M_A    0.0000
   7358 C         167.7701  103.2019   36.7441 C.3    1051      M_A    0.0000
   7359 C         168.8061  104.1677   37.3108 C.3    1051      M_A    0.0000
   7360 O         168.1647  105.2224   38.0264 O.3    1051      M_A    0.0000
   7361 H         166.8823  103.7600   36.4230 H      1051      M_A    0.0000
   7362 H         167.4271  102.5114   37.5229 H      1051      M_A    0.0000
   7363 H         169.3603  104.6439   36.4920 H      1051      M_A    0.0000
   7364 H         169.5547  103.6526   37.9301 H      1051      M_A    0.0000
   7365 C         166.7911  105.3085   37.7163 C.3    1052      M_A    0.0000
   7366 C         165.9428  104.4594   38.6580 C.3    1052      M_A    0.0000
   7367 O         165.6822  105.1680   39.8687 O.3    1052      M_A    0.0000
   7368 H         166.4700  106.3555   37.7734 H      1052      M_A    0.0000
   7369 H         166.6310  104.9999   36.6770 H      1052      M_A    0.0000
   7370 H         166.4938  103.5543   38.9436 H      1052      M_A    0.0000
   7371 H         165.0141  104.1161   38.1798 H      1052      M_A    0.0000
   7372 C         165.6150  106.5614   39.6581 C.3    1053      M_A    0.0000
   7373 C         167.0025  107.1884   39.5645 C.3    1053      M_A    0.0000
   7374 O         166.9054  108.5553   39.1668 O.3    1053      M_A    0.0000
   7375 H         165.0558  106.7636   38.7367 H      1053      M_A    0.0000
   7376 H         165.0410  107.0262   40.4677 H      1053      M_A    0.0000
   7377 H         167.5895  106.6827   38.7872 H      1053      M_A    0.0000
   7378 H         167.5697  107.0763   40.4999 H      1053      M_A    0.0000
   7379 C         165.6525  109.1117   39.4996 C.3    1054      M_A    0.0000
   7380 C         165.7968  110.4769   40.1648 C.3    1054      M_A    0.0000
   7381 O         164.5663  111.1959   40.0981 O.3    1054      M_A    0.0000
   7382 H         165.0435  109.2058   38.5925 H      1054      M_A    0.0000
   7383 H         165.1098  108.4232   40.1573 H      1054      M_A    0.0000
   7384 H         166.5358  111.0805   39.6226 H      1054      M_A    0.0000
   7385 H         166.1648  110.3954   41.1979 H      1054      M_A    0.0000
   7386 C         164.3175  111.9229   41.2813 C.3    1055      M_A    0.0000
   7387 C         164.2329  113.4232   41.0180 C.3    1055      M_A    0.0000
   7388 O         163.2226  114.0155   41.8331 O.3    1055      M_A    0.0000
   7389 H         163.3809  111.5741   41.7327 H      1055      M_A    0.0000
   7390 H         165.1038  111.7087   42.0141 H      1055      M_A    0.0000
   7391 H         163.9339  113.6037   39.9775 H      1055      M_A    0.0000
   7392 H         165.2048  113.9204   41.1493 H      1055      M_A    0.0000
   7393 C         162.9858  115.3612   41.4816 C.3    1056      M_A    0.0000
   7394 C         162.5771  116.1992   42.6890 C.3    1056      M_A    0.0000
   7395 O         162.6633  117.5900   42.3819 O.3    1056      M_A    0.0000
   7396 H         163.8907  115.7836   41.0285 H      1056      M_A    0.0000
   7397 H         162.2115  115.4059   40.7073 H      1056      M_A    0.0000
   7398 H         163.2735  116.0235   43.5188 H      1056      M_A    0.0000
   7399 H         161.5793  115.9262   43.0618 H      1056      M_A    0.0000
   7400 C         162.3669  118.3948   43.5021 C.3    1057      M_A    0.0000
   7401 C         161.6647  117.6022   44.6001 C.3    1057      M_A    0.0000
   7402 O         161.6778  118.3313   45.8265 O.3    1057      M_A    0.0000
   7403 H         163.2948  118.8274   43.8952 H      1057      M_A    0.0000
   7404 H         161.7475  119.2430   43.1891 H      1057      M_A    0.0000
   7405 H         162.2073  116.6677   44.7917 H      1057      M_A    0.0000
   7406 H         160.6444  117.3116   44.3107 H      1057      M_A    0.0000
   7407 C         162.2434  119.6141   45.6693 C.3    1058      M_A    0.0000
   7408 C         161.2090  120.7180   45.8660 C.3    1058      M_A    0.0000
   7409 O         160.8183  120.7957   47.2361 O.3    1058      M_A    0.0000
   7410 H         163.0610  119.7421   46.3888 H      1058      M_A    0.0000
   7411 H         162.7002  119.6930   44.6762 H      1058      M_A    0.0000
   7412 H         160.2991  120.4829   45.2993 H      1058      M_A    0.0000
   7413 H         161.5642  121.6880   45.4888 H      1058      M_A    0.0000
   7414 C         161.2478  121.9974   47.8378 C.3    1059      M_A    0.0000
   7415 C         160.1324  123.0369   47.8877 C.3    1059      M_A    0.0000
   7416 O         159.5846  123.1167   49.2028 O.3    1059      M_A    0.0000
   7417 H         161.6034  121.7887   48.8539 H      1059      M_A    0.0000
   7418 H         162.1116  122.3917   47.2907 H      1059      M_A    0.0000
   7419 H         159.3087  122.7331   47.2291 H      1059      M_A    0.0000
   7420 H         160.4682  124.0198   47.5267 H      1059      M_A    0.0000
   7421 C         158.8125  124.2840   49.3805 C.3    1060      M_A    0.0000
   7422 C         157.7924  124.1237   50.5034 C.3    1060      M_A    0.0000
   7423 O         156.5335  124.6712   50.1144 O.3    1060      M_A    0.0000
   7424 H         159.4757  125.1287   49.6023 H      1060      M_A    0.0000
   7425 H         158.3079  124.5352   48.4407 H      1060      M_A    0.0000
   7426 H         158.1154  124.6912   51.3855 H      1060      M_A    0.0000
   7427 H         157.6979  123.0775   50.8285 H      1060      M_A    0.0000
   7428 C         156.4635  126.0578   50.3648 C.3    1061      M_A    0.0000
   7429 C         156.3122  126.3585   51.8527 C.3    1061      M_A    0.0000
   7430 O         156.3568  127.7659   52.0834 O.3    1061      M_A    0.0000
   7431 H         157.3687  126.5432   49.9805 H      1061      M_A    0.0000
   7432 H         155.6277  126.4892   49.8023 H      1061      M_A    0.0000
   7433 H         157.1553  125.9287   52.4085 H      1061      M_A    0.0000
   7434 H         155.4031  125.9059   52.2745 H      1061      M_A    0.0000
   7435 C         157.2803  128.4089   51.2326 C.3    1062      M_A    0.0000
   7436 C         156.8642  129.8440   50.9249 C.3    1062      M_A    0.0000
   7437 O         156.7965  130.6111   52.1261 O.3    1062      M_A    0.0000
   7438 H         158.2715  128.4047   51.7018 H      1062      M_A    0.0000
   7439 H         157.3833  127.8351   50.3046 H      1062      M_A    0.0000
   7440 H         155.8547  129.8562   50.4946 H      1062      M_A    0.0000
   7441 H         157.5221  130.3132   50.1792 H      1062      M_A    0.0000
   7442 C         157.7632  131.6384   52.1486 C.3    1063      M_A    0.0000
   7443 C         157.1263  133.0193   52.0266 C.3    1063      M_A    0.0000
   7444 O         156.3812  133.3298   53.2031 O.3    1063      M_A    0.0000
   7445 H         158.3369  131.5779   53.0813 H      1063      M_A    0.0000
   7446 H         158.4849  131.4791   51.3395 H      1063      M_A    0.0000
   7447 H         156.4084  133.0276   51.1965 H      1063      M_A    0.0000
   7448 H         157.8692  133.7973   51.7985 H      1063      M_A    0.0000
   7449 C         157.1465  134.0679   54.1303 C.3    1064      M_A    0.0000
   7450 C         156.3596  135.2388   54.7108 C.3    1064      M_A    0.0000
   7451 O         156.4922  136.3896   53.8777 O.3    1064      M_A    0.0000
   7452 H         157.4742  133.4057   54.9408 H      1064      M_A    0.0000
   7453 H         158.0614  134.4270   53.6455 H      1064      M_A    0.0000
   7454 H         156.7717  135.5177   55.6889 H      1064      M_A    0.0000
   7455 H         155.3046  134.9812   54.8837 H      1064      M_A    0.0000
   7456 C         155.5218  137.3691   54.1764 C.3    1065      M_A    0.0000
   7457 C         155.8791  138.1569   55.4329 C.3    1065      M_A    0.0000
   7458 O         155.4389  139.5090   55.3150 O.3    1065      M_A    0.0000
   7459 H         155.4235  138.0551   53.3264 H      1065      M_A    0.0000
   7460 H         154.5428  136.8904   54.2926 H      1065      M_A    0.0000
   7461 H         156.9695  138.1974   55.5511 H      1065      M_A    0.0000
   7462 H         155.4886  137.6800   56.3436 H      1065      M_A    0.0000
   7463 C         154.7105  139.9254   56.4492 C.3    1066      M_A    0.0000
   7464 C         155.5595  140.7779   57.3870 C.3    1066      M_A    0.0000
   7465 O         154.7274  141.5028   58.2913 O.3    1066      M_A    0.0000
   7466 H         153.8306  140.4954   56.1275 H      1066      M_A    0.0000
   7467 H         154.3240  139.0468   56.9782 H      1066      M_A    0.0000
   7468 H         156.1144  141.5287   56.8100 H      1066      M_A    0.0000
   7469 H         156.3136  140.1797   57.9188 H      1066      M_A    0.0000
   7470 C         154.4970  142.8229   57.8502 C.3    1067      M_A    0.0000
   7471 C         153.1144  143.3235   58.2564 C.3    1067      M_A    0.0000
   7472 O         153.0273  144.7376   58.0873 O.3    1067      M_A    0.0000
   7473 H         155.2660  143.4850   58.2661 H      1067      M_A    0.0000
   7474 H         154.6145  142.8704   56.7616 H      1067      M_A    0.0000
   7475 H         152.9456  143.1302   59.3234 H      1067      M_A    0.0000
   7476 H         152.3115  142.7994   57.7180 H      1067      M_A    0.0000
   7477 C         152.2457  145.3403   59.0954 C.3    1068      M_A    0.0000
   7478 C         153.0930  145.7706   60.2888 C.3    1068      M_A    0.0000
   7479 O         152.5204  146.9155   60.9190 O.3    1068      M_A    0.0000
   7480 H         151.7243  146.2110   58.6800 H      1068      M_A    0.0000
   7481 H         151.4624  144.6440   59.4159 H      1068      M_A    0.0000
   7482 H         154.0913  146.0737   59.9484 H      1068      M_A    0.0000
   7483 H         153.2479  144.9484   61.0024 H      1068      M_A    0.0000
   7484 C         151.7082  146.5601   62.0165 C.3    1069      M_A    0.0000
   7485 C         152.5050  146.5006   63.3160 C.3    1069      M_A    0.0000
   7486 O         153.9045  146.5654   63.0454 O.3    1069      M_A    0.0000
   7487 H         150.8931  147.2869   62.1165 H      1069      M_A    0.0000
   7488 H         151.2290  145.5944   61.8191 H      1069      M_A    0.0000
   7489 H         152.3325  145.5392   63.8164 H      1069      M_A    0.0000
   7490 H         152.1920  147.2782   64.0277 H      1069      M_A    0.0000
   7491 C         154.2716  147.7995   62.4686 C.3    1070      M_A    0.0000
   7492 C         154.3447  148.9125   63.5092 C.3    1070      M_A    0.0000
   7493 O         155.3661  149.8481   63.1667 O.3    1070      M_A    0.0000
   7494 H         155.2437  147.6943   61.9720 H      1070      M_A    0.0000
   7495 H         153.5568  148.0616   61.6803 H      1070      M_A    0.0000
   7496 H         154.6247  148.4944   64.4845 H      1070      M_A    0.0000
   7497 H         153.3728  149.4063   63.6539 H      1070      M_A    0.0000
   7498 C         155.1160  151.1235   63.7154 C.3    1071      M_A    0.0000
   7499 C         154.4285  152.0468   62.7143 C.3    1071      M_A    0.0000
   7500 O         154.9993  151.8872   61.4164 O.3    1071      M_A    0.0000
   7501 H         154.4907  151.0185   64.6102 H      1071      M_A    0.0000
   7502 H         156.0588  151.5661   64.0564 H      1071      M_A    0.0000
   7503 H         154.5945  153.0942   62.9969 H      1071      M_A    0.0000
   7504 H         153.3387  151.9012   62.7001 H      1071      M_A    0.0000
   7505 C         156.4086  151.8449   61.4636 C.3    1072      M_A    0.0000
   7506 C         156.9670  152.7524   62.5553 C.3    1072      M_A    0.0000
   7507 O         157.4199  153.9843   61.9954 O.3    1072      M_A    0.0000
   7508 H         156.7361  150.8130   61.6384 H      1072      M_A    0.0000
   7509 H         156.8158  152.1294   60.4868 H      1072      M_A    0.0000
   7510 H         157.8447  152.2837   63.0183 H      1072      M_A    0.0000
   7511 H         156.2423  152.9163   63.3660 H      1072      M_A    0.0000
   7512 C         156.6653  155.0818   62.4604 C.3    1073      M_A    0.0000
   7513 C         155.3017  155.1611   61.7812 C.3    1073      M_A    0.0000
   7514 O         154.6595  156.3957   62.0962 O.3    1073      M_A    0.0000
   7515 H         156.5325  154.9985   63.5459 H      1073      M_A    0.0000
   7516 H         157.2273  156.0081   62.2954 H      1073      M_A    0.0000
   7517 H         154.6471  154.3674   62.1634 H      1073      M_A    0.0000
   7518 H         155.3723  155.0050   60.6950 H      1073      M_A    0.0000
   7519 C         153.6492  156.7152   61.1648 C.3    1074      M_A    0.0000
   7520 C         152.2598  156.6541   61.7918 C.3    1074      M_A    0.0000
   7521 O         151.7941  157.9672   62.0993 O.3    1074      M_A    0.0000
   7522 H         153.8289  157.7197   60.7632 H      1074      M_A    0.0000
   7523 H         153.7113  156.0327   60.3096 H      1074      M_A    0.0000
   7524 H         152.3036  156.1119   62.7450 H      1074      M_A    0.0000
   7525 H         151.5457  156.1070   61.1594 H      1074      M_A    0.0000
   7526 C         151.8504  158.2341   63.4835 C.3    1075      M_A    0.0000
   7527 C         152.9382  159.2488   63.8217 C.3    1075      M_A    0.0000
   7528 O         152.9509  159.5166   65.2231 O.3    1075      M_A    0.0000
   7529 H         150.8772  158.6100   63.8215 H      1075      M_A    0.0000
   7530 H         152.0189  157.2990   64.0295 H      1075      M_A    0.0000
   7531 H         152.7239  160.2050   63.3276 H      1075      M_A    0.0000
   7532 H         153.9263  158.9301   63.4595 H      1075      M_A    0.0000
   7533 C         154.2507  159.4245   65.7639 C.3    1076      M_A    0.0000
   7534 C         155.1682  158.5719   64.8931 C.3    1076      M_A    0.0000
   7535 O         156.3975  159.2538   64.6483 O.3    1076      M_A    0.0000
   7536 H         154.6730  160.4311   65.8697 H      1076      M_A    0.0000
   7537 H         154.1964  159.0119   66.7777 H      1076      M_A    0.0000
   7538 H         154.7060  158.4087   63.9112 H      1076      M_A    0.0000
   7539 H         155.3355  157.5741   65.3239 H      1076      M_A    0.0000
   7540 C         156.6804  160.2038   65.6523 C.3    1077      M_A    0.0000
   7541 C         156.0501  161.5586   65.3451 C.3    1077      M_A    0.0000
   7542 O         156.1065  162.4055   66.4920 O.3    1077      M_A    0.0000
   7543 H         156.3109  159.8351   66.6167 H      1077      M_A    0.0000
   7544 H         157.7659  160.3053   65.7639 H      1077      M_A    0.0000
   7545 H         154.9860  161.4307   65.1089 H      1077      M_A    0.0000
   7546 H         156.5054  162.0351   64.4648 H      1077      M_A    0.0000
   7547 C         156.3671  163.7472   66.1422 C.3    1078      M_A    0.0000
   7548 C         155.1144  164.6123   66.2395 C.3    1078      M_A    0.0000
   7549 O         154.9311  165.3600   65.0382 O.3    1078      M_A    0.0000
   7550 H         157.1459  164.1503   66.8007 H      1078      M_A    0.0000
   7551 H         156.7794  163.7870   65.1276 H      1078      M_A    0.0000
   7552 H         155.2301  165.3481   67.0455 H      1078      M_A    0.0000
   7553 H         154.2225  164.0197   66.4897 H      1078      M_A    0.0000
   7554 C         153.6632  165.1297   64.4640 C.3    1079      M_A    0.0000
   7555 C         153.7736  164.4933   63.0820 C.3    1079      M_A    0.0000
   7556 O         152.4846  164.1074   62.6072 O.3    1079      M_A    0.0000
   7557 H         153.0775  164.4787   65.1242 H      1079      M_A    0.0000
   7558 H         153.1114  166.0747   64.4051 H      1079      M_A    0.0000
   7559 H         154.3682  163.5728   63.1409 H      1079      M_A    0.0000
   7560 H         154.2911  165.1486   62.3665 H      1079      M_A    0.0000
   7561 C         151.8916  163.1291   63.4327 C.3    1080      M_A    0.0000
   7562 C         150.8253  162.3304   62.6896 C.3    1080      M_A    0.0000
   7563 O         150.9409  162.5345   61.2822 O.3    1080      M_A    0.0000
   7564 H         152.6671  162.4501   63.8071 H      1080      M_A    0.0000
   7565 H         151.4593  163.6104   64.3173 H      1080      M_A    0.0000
   7566 H         149.8266  162.6876   62.9714 H      1080      M_A    0.0000
   7567 H         150.8544  161.2623   62.9493 H      1080      M_A    0.0000
   7568 C         150.4191  161.4480   60.5489 C.3    1081      M_A    0.0000
   7569 C         149.1340  160.9095   61.1701 C.3    1081      M_A    0.0000
   7570 O         148.6816  159.7583   60.4588 O.3    1081      M_A    0.0000
   7571 H         150.2256  161.7648   59.5170 H      1081      M_A    0.0000
   7572 H         151.1726  160.6548   60.4848 H      1081      M_A    0.0000
   7573 H         148.3357  161.6576   61.0846 H      1081      M_A    0.0000
   7574 H         149.2496  160.7045   62.2442 H      1081      M_A    0.0000
   7575 C         148.3743  158.6906   61.3281 C.3    1082      M_A    0.0000
   7576 C         148.7069  159.0264   62.7786 C.3    1082      M_A    0.0000
   7577 O         147.6164  158.6823   63.6320 O.3    1082      M_A    0.0000
   7578 H         147.3090  158.4454   61.2411 H      1082      M_A    0.0000
   7579 H         148.9174  157.7930   61.0110 H      1082      M_A    0.0000
   7580 H         148.8533  160.1086   62.8874 H      1082      M_A    0.0000
   7581 H         149.6445  158.5547   63.1065 H      1082      M_A    0.0000
   7582 C         148.0539  158.3175   64.9226 C.3    1083      M_A    0.0000
   7583 C         146.9727  158.5470   65.9740 C.3    1083      M_A    0.0000
   7584 O         147.1060  157.6067   67.0388 O.3    1083      M_A    0.0000
   7585 H         148.3495  157.2614   64.9218 H      1083      M_A    0.0000
   7586 H         148.9576  158.8835   65.1759 H      1083      M_A    0.0000
   7587 H         145.9818  158.3759   65.5345 H      1083      M_A    0.0000
   7588 H         146.9704  159.5826   66.3439 H      1083      M_A    0.0000
   7589 C         148.4566  157.3962   67.3881 C.3    1084      M_A    0.0000
   7590 C         148.7442  157.8231   68.8242 C.3    1084      M_A    0.0000
   7591 O         149.3941  156.7709   69.5358 O.3    1084      M_A    0.0000
   7592 H         148.7041  156.3353   67.2620 H      1084      M_A    0.0000
   7593 H         149.1036  157.9419   66.6919 H      1084      M_A    0.0000
   7594 H         147.8018  158.0157   69.3526 H      1084      M_A    0.0000
   7595 H         149.3187  158.7596   68.8688 H      1084      M_A    0.0000
   7596 C         150.3160  157.2671   70.4814 C.3    1085      M_A    0.0000
   7597 C         149.7229  158.4024   71.3100 C.3    1085      M_A    0.0000
   7598 O         149.9208  158.1589   72.7019 O.3    1085      M_A    0.0000
   7599 H         150.6316  156.4525   71.1442 H      1085      M_A    0.0000
   7600 H         151.2222  157.6050   69.9659 H      1085      M_A    0.0000
   7601 H         148.6372  158.4490   71.1570 H      1085      M_A    0.0000
   7602 H         150.1183  159.3832   71.0084 H      1085      M_A    0.0000
   7603 C         150.0836  159.3580   73.4272 C.3    1086      M_A    0.0000
   7604 C         151.5557  159.6902   73.6507 C.3    1086      M_A    0.0000
   7605 O         151.6852  160.8828   74.4231 O.3    1086      M_A    0.0000
   7606 H         149.5981  160.1792   72.8864 H      1086      M_A    0.0000
   7607 H         149.5612  159.2783   74.3873 H      1086      M_A    0.0000
   7608 H         152.0434  159.8922   72.6885 H      1086      M_A    0.0000
   7609 H         152.1037  158.8511   74.1031 H      1086      M_A    0.0000
   7610 C         150.4296  161.4027   74.8019 C.3    1087      M_A    0.0000
   7611 C         149.3414  160.3338   74.7741 C.3    1087      M_A    0.0000
   7612 O         148.4762  160.4747   75.8999 O.3    1087      M_A    0.0000
   7613 H         150.5014  161.8299   75.8094 H      1087      M_A    0.0000
   7614 H         150.1634  162.2344   74.1397 H      1087      M_A    0.0000
   7615 H         149.7941  159.3375   74.8566 H      1087      M_A    0.0000
   7616 H         148.7816  160.3399   73.8276 H      1087      M_A    0.0000
   7617 C         148.8676  161.5438   76.7330 C.3    1088      M_A    0.0000
   7618 C         148.5404  162.8974   76.1100 C.3    1088      M_A    0.0000
   7619 O         148.0949  163.8115   77.1109 O.3    1088      M_A    0.0000
   7620 H         148.3640  161.4526   77.7029 H      1088      M_A    0.0000
   7621 H         149.9408  161.4704   76.9421 H      1088      M_A    0.0000
   7622 H         147.7109  162.7909   75.3993 H      1088      M_A    0.0000
   7623 H         149.3866  163.3028   75.5366 H      1088      M_A    0.0000
   7624 C         147.5155  164.9674   76.5465 C.3    1089      M_A    0.0000
   7625 C         148.4622  166.1623   76.6042 C.3    1089      M_A    0.0000
   7626 O         148.1727  166.9723   77.7426 O.3    1089      M_A    0.0000
   7627 H         147.2402  164.7648   75.5045 H      1089      M_A    0.0000
   7628 H         146.5789  165.1982   77.0667 H      1089      M_A    0.0000
   7629 H         148.3110  166.8017   75.7251 H      1089      M_A    0.0000
   7630 H         149.5174  165.8539   76.5823 H      1089      M_A    0.0000
   7631 C         147.4379  168.1252   77.3942 C.3    1090      M_A    0.0000
   7632 C         145.9467  167.8300   77.2663 C.3    1090      M_A    0.0000
   7633 O         145.1781  168.9433   77.7200 O.3    1090      M_A    0.0000
   7634 H         147.5967  168.9010   78.1527 H      1090      M_A    0.0000
   7635 H         147.8265  168.5365   76.4557 H      1090      M_A    0.0000
   7636 H         145.6761  166.9854   77.9127 H      1090      M_A    0.0000
   7637 H         145.6709  167.5353   76.2435 H      1090      M_A    0.0000
   7638 C         145.2619  170.0366   76.8322 C.3    1091      M_A    0.0000
   7639 C         144.5338  169.7592   75.5207 C.3    1091      M_A    0.0000
   7640 O         143.1554  170.1103   75.6324 O.3    1091      M_A    0.0000
   7641 H         144.8353  170.9268   77.3099 H      1091      M_A    0.0000
   7642 H         146.3149  170.2722   76.6407 H      1091      M_A    0.0000
   7643 H         144.5607  168.6848   75.2983 H      1091      M_A    0.0000
   7644 H         145.0137  170.2617   74.6684 H      1091      M_A    0.0000
   7645 C         142.9658  171.5082   75.6117 C.3    1092      M_A    0.0000
   7646 C         142.2395  172.0006   76.8595 C.3    1092      M_A    0.0000
   7647 O         142.4331  173.4043   77.0270 O.3    1092      M_A    0.0000
   7648 H         143.9394  172.0063   75.5308 H      1092      M_A    0.0000
   7649 H         142.4078  171.7881   74.7109 H      1092      M_A    0.0000
   7650 H         142.6637  171.5228   77.7518 H      1092      M_A    0.0000
   7651 H         141.1723  171.7359   76.8469 H      1092      M_A    0.0000
   7652 C         141.8377  173.8789   78.2147 C.3    1093      M_A    0.0000
   7653 C         142.2490  175.3157   78.5204 C.3    1093      M_A    0.0000
   7654 O         141.1391  176.0536   79.0299 O.3    1093      M_A    0.0000
   7655 H         140.7464  173.8188   78.1239 H      1093      M_A    0.0000
   7656 H         142.1079  173.2200   79.0477 H      1093      M_A    0.0000
   7657 H         142.5563  175.8212   77.5960 H      1093      M_A    0.0000
   7658 H         143.1136  175.3618   79.1982 H      1093      M_A    0.0000
   7659 C         141.5357  176.9932   80.0048 C.3    1094      M_A    0.0000
   7660 C         141.3306  178.4273   79.5268 C.3    1094      M_A    0.0000
   7661 O         140.7386  179.2160   80.5580 O.3    1094      M_A    0.0000
   7662 H         140.9639  176.8258   80.9254 H      1094      M_A    0.0000
   7663 H         142.5864  176.8260   80.2675 H      1094      M_A    0.0000
   7664 H         140.6270  178.4435   78.6846 H      1094      M_A    0.0000
   7665 H         142.2637  178.8760   79.1566 H      1094      M_A    0.0000
   7666 C         141.5707  180.2883   80.9428 C.3    1095      M_A    0.0000
   7667 C         141.4276  180.6131   82.4264 C.3    1095      M_A    0.0000
   7668 O         141.1399  181.9989   82.6072 O.3    1095      M_A    0.0000
   7669 H         142.6146  180.0373   80.7191 H      1095      M_A    0.0000
   7670 H         141.3355  181.1697   80.3355 H      1095      M_A    0.0000
   7671 H         142.3774  180.4260   82.9433 H      1095      M_A    0.0000
   7672 H         140.6790  179.9749   82.9179 H      1095      M_A    0.0000
   7673 C         140.0652  182.2007   83.4986 C.3    1096      M_A    0.0000
   7674 C         140.2649  183.4473   84.3549 C.3    1096      M_A    0.0000
   7675 O         139.0629  183.7697   85.0528 O.3    1096      M_A    0.0000
   7676 H         139.1320  182.2896   82.9294 H      1096      M_A    0.0000
   7677 H         139.9472  181.3163   84.1351 H      1096      M_A    0.0000
   7678 H         140.4891  184.3091   83.7136 H      1096      M_A    0.0000
   7679 H         141.1182  183.3441   85.0407 H      1096      M_A    0.0000
   7680 C         138.2042  184.5757   84.2760 C.3    1097      M_A    0.0000
   7681 C         138.1632  184.1216   82.8203 C.3    1097      M_A    0.0000
   7682 O         136.9411  184.5281   82.2061 O.3    1097      M_A    0.0000
   7683 H         137.1935  184.5452   84.7007 H      1097      M_A    0.0000
   7684 H         138.5269  185.6210   84.3399 H      1097      M_A    0.0000
   7685 H         138.1832  183.0255   82.7700 H      1097      M_A    0.0000
   7686 H         139.0387  184.4715   82.2544 H      1097      M_A    0.0000
   7687 C         136.7852  183.9644   80.9223 C.3    1098      M_A    0.0000
   7688 C         137.9566  184.3059   80.0068 C.3    1098      M_A    0.0000
   7689 O         137.5990  185.3581   79.1119 O.3    1098      M_A    0.0000
   7690 H         136.6922  182.8753   81.0118 H      1098      M_A    0.0000
   7691 H         135.8438  184.3124   80.4821 H      1098      M_A    0.0000
   7692 H         138.2059  183.4402   79.3801 H      1098      M_A    0.0000
   7693 H         138.8671  184.5468   80.5745 H      1098      M_A    0.0000
   7694 C         138.5877  185.5702   78.1281 C.3    1099      M_A    0.0000
   7695 C         139.9064  186.0327   78.7399 C.3    1099      M_A    0.0000
   7696 O         140.1604  187.3958   78.4033 O.3    1099      M_A    0.0000
   7697 H         138.7471  184.6420   77.5663 H      1099      M_A    0.0000
   7698 H         138.2271  186.3056   77.4000 H      1099      M_A    0.0000
   7699 H         140.7374  185.4519   78.3196 H      1099      M_A    0.0000
   7700 H         139.9363  185.8699   79.8270 H      1099      M_A    0.0000
   7701 C         141.4558  187.7999   78.7896 C.3    1100      M_A    0.0000
   7702 C         141.4679  189.2276   79.3270 C.3    1100      M_A    0.0000
   7703 O         142.6676  189.4739   80.0589 O.3    1100      M_A    0.0000
   7704 H         141.8377  187.1141   79.5555 H      1100      M_A    0.0000
   7705 H         142.1370  187.7085   77.9360 H      1100      M_A    0.0000
   7706 H         140.6411  189.3673   80.0351 H      1100      M_A    0.0000
   7707 H         141.3184  189.9697   78.5294 H      1100      M_A    0.0000
   7708 C         143.1749  188.2967   80.6480 C.3    1101      M_A    0.0000
   7709 C         143.0980  188.3459   82.1708 C.3    1101      M_A    0.0000
   7710 O         144.4025  188.4889   82.7309 O.3    1101      M_A    0.0000
   7711 H         142.6108  187.4322   80.2778 H      1101      M_A    0.0000
   7712 H         144.2104  188.1426   80.3239 H      1101      M_A    0.0000
   7713 H         142.7000  187.3983   82.5556 H      1101      M_A    0.0000
   7714 H         142.4153  189.1322   82.5240 H      1101      M_A    0.0000
   7715 C         145.1990  187.3463   82.5065 C.3    1102      M_A    0.0000
   7716 C         146.6767  187.6259   82.7622 C.3    1102      M_A    0.0000
   7717 O         147.3360  186.4442   83.2145 O.3    1102      M_A    0.0000
   7718 H         144.8593  186.5322   83.1581 H      1102      M_A    0.0000
   7719 H         145.0504  186.9931   81.4798 H      1102      M_A    0.0000
   7720 H         146.7834  188.3649   83.5665 H      1102      M_A    0.0000
   7721 H         147.1734  188.0568   81.8809 H      1102      M_A    0.0000
   7722 C         146.8535  185.2905   82.5614 C.3    1103      M_A    0.0000
   7723 C         147.7341  184.0748   82.8331 C.3    1103      M_A    0.0000
   7724 O         148.4129  183.6758   81.6432 O.3    1103      M_A    0.0000
   7725 H         145.8289  185.0856   82.8942 H      1103      M_A    0.0000
   7726 H         146.7885  185.4805   81.4841 H      1103      M_A    0.0000
   7727 H         147.1118  183.2221   83.1331 H      1103      M_A    0.0000
   7728 H         148.4353  184.2504   83.6618 H      1103      M_A    0.0000
   7729 C         147.8193  184.2287   80.4890 C.3    1104      M_A    0.0000
   7730 C         146.7629  185.2722   80.8389 C.3    1104      M_A    0.0000
   7731 O         146.5458  186.1504   79.7355 O.3    1104      M_A    0.0000
   7732 H         148.5958  184.6852   79.8634 H      1104      M_A    0.0000
   7733 H         147.3778  183.4276   79.8854 H      1104      M_A    0.0000
   7734 H         147.1173  185.8996   81.6666 H      1104      M_A    0.0000
   7735 H         145.8255  184.8110   81.1821 H      1104      M_A    0.0000
   7736 C         145.1739  186.2922   79.4388 C.3    1105      M_A    0.0000
   7737 C         144.9444  187.2095   78.2416 C.3    1105      M_A    0.0000
   7738 O         144.9777  186.4610   77.0273 O.3    1105      M_A    0.0000
   7739 H         144.7416  185.3051   79.2355 H      1105      M_A    0.0000
   7740 H         144.6472  186.6768   80.3195 H      1105      M_A    0.0000
   7741 H         145.7568  187.9442   78.1726 H      1105      M_A    0.0000
   7742 H         144.0141  187.7878   78.3375 H      1105      M_A    0.0000
   7743 C         143.7200  185.8998   76.7212 C.3    1106      M_A    0.0000
   7744 C         143.8515  184.4932   76.1457 C.3    1106      M_A    0.0000
   7745 O         142.5625  183.9352   75.8951 O.3    1106      M_A    0.0000
   7746 H         143.1038  185.8714   77.6279 H      1106      M_A    0.0000
   7747 H         143.1906  186.5515   76.0169 H      1106      M_A    0.0000
   7748 H         144.3353  183.8338   76.8775 H      1106      M_A    0.0000
   7749 H         144.4852  184.4728   75.2473 H      1106      M_A    0.0000
   7750 C         142.0114  183.3448   77.0519 C.3    1107      M_A    0.0000
   7751 C         142.7871  183.7275   78.3085 C.3    1107      M_A    0.0000
   7752 O         142.2093  183.1102   79.4577 O.3    1107      M_A    0.0000
   7753 H         140.9647  183.6552   77.1556 H      1107      M_A    0.0000
   7754 H         141.9927  182.2555   76.9329 H      1107      M_A    0.0000
   7755 H         142.7195  184.8103   78.4740 H      1107      M_A    0.0000
   7756 H         143.8584  183.4965   78.2181 H      1107      M_A    0.0000
   7757 C         140.8189  182.9222   79.3101 C.3    1108      M_A    0.0000
   7758 C         140.0605  183.2734   80.5863 C.3    1108      M_A    0.0000
   7759 O         140.0005  184.6888   80.7565 O.3    1108      M_A    0.0000
   7760 H         140.4538  183.5414   78.4818 H      1108      M_A    0.0000
   7761 H         140.6189  181.8840   79.0218 H      1108      M_A    0.0000
   7762 H         140.5967  182.8808   81.4597 H      1108      M_A    0.0000
   7763 H         139.0597  182.8182   80.6097 H      1108      M_A    0.0000
   7764 C         140.9899  185.3513   80.0000 C.3    1109      M_A    0.0000
   7765 C         141.6605  186.4666   80.7961 C.3    1109      M_A    0.0000
   7766 O         143.0745  186.2774   80.8242 O.3    1109      M_A    0.0000
   7767 H         141.7448  184.6260   79.6732 H      1109      M_A    0.0000
   7768 H         140.5417  185.7536   79.0844 H      1109      M_A    0.0000
   7769 H         141.3248  186.4341   81.8404 H      1109      M_A    0.0000
   7770 H         141.3910  187.4631   80.4173 H      1109      M_A    0.0000
   7771 C         143.6489  186.7832   82.0094 C.3    1110      M_A    0.0000
   7772 C         142.5898  187.1166   83.0555 C.3    1110      M_A    0.0000
   7773 O         143.1808  187.2066   84.3511 O.3    1110      M_A    0.0000
   7774 H         144.3510  186.0459   82.4170 H      1110      M_A    0.0000
   7775 H         144.2463  187.6718   81.7757 H      1110      M_A    0.0000
   7776 H         141.8506  186.3072   83.1100 H      1110      M_A    0.0000
   7777 H         142.0299  188.0277   82.7997 H      1110      M_A    0.0000
   7778 C         143.9476  188.3816   84.4984 C.3    1111      M_A    0.0000
   7779 C         143.1988  189.6138   84.0000 C.3    1111      M_A    0.0000
   7780 O         143.6618  190.7838   84.6727 O.3    1111      M_A    0.0000
   7781 H         144.2128  188.5132   85.5544 H      1111      M_A    0.0000
   7782 H         144.8960  188.2691   83.9609 H      1111      M_A    0.0000
   7783 H         142.1313  189.5240   84.2382 H      1111      M_A    0.0000
   7784 H         143.2622  189.7209   82.9074 H      1111      M_A    0.0000
   7785 C         143.2785  191.9631   84.0000 C.3    1112      M_A    0.0000
   7786 C         141.8283  191.9024   83.5304 C.3    1112      M_A    0.0000
   7787 O         141.5060  193.0586   82.7589 O.3    1112      M_A    0.0000
   7788 H         143.4147  192.8231   84.6667 H      1112      M_A    0.0000
   7789 H         143.9476  192.1324   83.1487 H      1112      M_A    0.0000
   7790 H         141.1544  191.9125   84.3965 H      1112      M_A    0.0000
   7791 H         141.6109  190.9742   82.9823 H      1112      M_A    0.0000
   7792 C         140.1194  193.3190   82.7567 C.3    1113      M_A    0.0000
   7793 C         139.3189  192.1248   82.2466 C.3    1113      M_A    0.0000
   7794 O         137.9270  192.3153   82.4960 O.3    1113      M_A    0.0000
   7795 H         139.7952  193.5736   83.7729 H      1113      M_A    0.0000
   7796 H         139.9147  194.2043   82.1440 H      1113      M_A    0.0000
   7797 H         139.6087  191.2192   82.7946 H      1113      M_A    0.0000
   7798 H         139.5173  191.9185   81.1849 H      1113      M_A    0.0000
   7799 H         137.5040  192.8651   81.8038 H      1113      M_A    0.0000
   7800 H          99.6576  109.2697   18.0991 H         0      M_A    0.0000
@<TRIPOS>BOND
     1     1     2      1
     2     1     4      1
     3     1     5      1
     4     1  7800      1
     5     2     3      1
     6     2     6      1
     7     2     7      1
     8     3     8      1
     9     8     9      1
    10     8    11      1
    11     8    12      1
    12     9    10      1
    13     9    13      1
    14     9    14      1
    15    10    15      1
    16    15    16      1
    17    15    18      1
    18    15    19      1
    19    16    17      1
    20    16    20      1
    21    16    21      1
    22    17    22      1
    23    22    23      1
    24    22    25      1
    25    22    26      1
    26    23    24      1
    27    23    27      1
    28    23    28      1
    29    24    29      1
    30    29    30      1
    31    29    32      1
    32    29    33      1
    33    30    31      1
    34    30    34      1
    35    30    35      1
    36    31    36      1
    37    36    37      1
    38    36    39      1
    39    36    40      1
    40    37    38      1
    41    37    41      1
    42    37    42      1
    43    38    43      1
    44    43    44      1
    45    43    46      1
    46    43    47      1
    47    44    45      1
    48    44    48      1
    49    44    49      1
    50    45    50      1
    51    50    51      1
    52    50    53      1
    53    50    54      1
    54    51    52      1
    55    51    55      1
    56    51    56      1
    57    52    57      1
    58    57    58      1
    59    57    60      1
    60    57    61      1
    61    58    59      1
    62    58    62      1
    63    58    63      1
    64    59    64      1
    65    64    65      1
    66    64    67      1
    67    64    68      1
    68    65    66      1
    69    65    69      1
    70    65    70      1
    71    66    71      1
    72    71    72      1
    73    71    74      1
    74    71    75      1
    75    72    73      1
    76    72    76      1
    77    72    77      1
    78    73    78      1
    79    78    79      1
    80    78    81      1
    81    78    82      1
    82    79    80      1
    83    79    83      1
    84    79    84      1
    85    80    85      1
    86    85    86      1
    87    85    88      1
    88    85    89      1
    89    86    87      1
    90    86    90      1
    91    86    91      1
    92    87    92      1
    93    92    93      1
    94    92    95      1
    95    92    96      1
    96    93    94      1
    97    93    97      1
    98    93    98      1
    99    94    99      1
   100    99   100      1
   101    99   102      1
   102    99   103      1
   103   100   101      1
   104   100   104      1
   105   100   105      1
   106   101   106      1
   107   106   107      1
   108   106   109      1
   109   106   110      1
   110   107   108      1
   111   107   111      1
   112   107   112      1
   113   108   113      1
   114   113   114      1
   115   113   116      1
   116   113   117      1
   117   114   115      1
   118   114   118      1
   119   114   119      1
   120   115   120      1
   121   120   121      1
   122   120   123      1
   123   120   124      1
   124   121   122      1
   125   121   125      1
   126   121   126      1
   127   122   127      1
   128   127   128      1
   129   127   130      1
   130   127   131      1
   131   128   129      1
   132   128   132      1
   133   128   133      1
   134   129   134      1
   135   134   135      1
   136   134   137      1
   137   134   138      1
   138   135   136      1
   139   135   139      1
   140   135   140      1
   141   136   141      1
   142   141   142      1
   143   141   144      1
   144   141   145      1
   145   142   143      1
   146   142   146      1
   147   142   147      1
   148   143   148      1
   149   148   149      1
   150   148   151      1
   151   148   152      1
   152   149   150      1
   153   149   153      1
   154   149   154      1
   155   150   155      1
   156   155   156      1
   157   155   158      1
   158   155   159      1
   159   156   157      1
   160   156   160      1
   161   156   161      1
   162   157   162      1
   163   162   163      1
   164   162   165      1
   165   162   166      1
   166   163   164      1
   167   163   167      1
   168   163   168      1
   169   164   169      1
   170   169   170      1
   171   169   172      1
   172   169   173      1
   173   170   171      1
   174   170   174      1
   175   170   175      1
   176   171   176      1
   177   176   177      1
   178   176   179      1
   179   176   180      1
   180   177   178      1
   181   177   181      1
   182   177   182      1
   183   178   183      1
   184   183   184      1
   185   183   186      1
   186   183   187      1
   187   184   185      1
   188   184   188      1
   189   184   189      1
   190   185   190      1
   191   190   191      1
   192   190   193      1
   193   190   194      1
   194   191   192      1
   195   191   195      1
   196   191   196      1
   197   192   197      1
   198   197   198      1
   199   197   200      1
   200   197   201      1
   201   198   199      1
   202   198   202      1
   203   198   203      1
   204   199   204      1
   205   204   205      1
   206   204   207      1
   207   204   208      1
   208   205   206      1
   209   205   209      1
   210   205   210      1
   211   206   211      1
   212   211   212      1
   213   211   214      1
   214   211   215      1
   215   212   213      1
   216   212   216      1
   217   212   217      1
   218   213   218      1
   219   218   219      1
   220   218   221      1
   221   218   222      1
   222   219   220      1
   223   219   223      1
   224   219   224      1
   225   220   225      1
   226   225   226      1
   227   225   228      1
   228   225   229      1
   229   226   227      1
   230   226   230      1
   231   226   231      1
   232   227   232      1
   233   232   233      1
   234   232   235      1
   235   232   236      1
   236   233   234      1
   237   233   237      1
   238   233   238      1
   239   234   239      1
   240   239   240      1
   241   239   242      1
   242   239   243      1
   243   240   241      1
   244   240   244      1
   245   240   245      1
   246   241   246      1
   247   246   247      1
   248   246   249      1
   249   246   250      1
   250   247   248      1
   251   247   251      1
   252   247   252      1
   253   248   253      1
   254   253   254      1
   255   253   256      1
   256   253   257      1
   257   254   255      1
   258   254   258      1
   259   254   259      1
   260   255   260      1
   261   260   261      1
   262   260   263      1
   263   260   264      1
   264   261   262      1
   265   261   265      1
   266   261   266      1
   267   262   267      1
   268   267   268      1
   269   267   270      1
   270   267   271      1
   271   268   269      1
   272   268   272      1
   273   268   273      1
   274   269   274      1
   275   274   275      1
   276   274   277      1
   277   274   278      1
   278   275   276      1
   279   275   279      1
   280   275   280      1
   281   276   281      1
   282   281   282      1
   283   281   284      1
   284   281   285      1
   285   282   283      1
   286   282   286      1
   287   282   287      1
   288   283   288      1
   289   288   289      1
   290   288   291      1
   291   288   292      1
   292   289   290      1
   293   289   293      1
   294   289   294      1
   295   290   295      1
   296   295   296      1
   297   295   298      1
   298   295   299      1
   299   296   297      1
   300   296   300      1
   301   296   301      1
   302   297   302      1
   303   302   303      1
   304   302   305      1
   305   302   306      1
   306   303   304      1
   307   303   307      1
   308   303   308      1
   309   304   309      1
   310   309   310      1
   311   309   312      1
   312   309   313      1
   313   310   311      1
   314   310   314      1
   315   310   315      1
   316   311   316      1
   317   316   317      1
   318   316   319      1
   319   316   320      1
   320   317   318      1
   321   317   321      1
   322   317   322      1
   323   318   323      1
   324   323   324      1
   325   323   326      1
   326   323   327      1
   327   324   325      1
   328   324   328      1
   329   324   329      1
   330   325   330      1
   331   330   331      1
   332   330   333      1
   333   330   334      1
   334   331   332      1
   335   331   335      1
   336   331   336      1
   337   332   337      1
   338   337   338      1
   339   337   340      1
   340   337   341      1
   341   338   339      1
   342   338   342      1
   343   338   343      1
   344   339   344      1
   345   344   345      1
   346   344   347      1
   347   344   348      1
   348   345   346      1
   349   345   349      1
   350   345   350      1
   351   346   351      1
   352   351   352      1
   353   351   354      1
   354   351   355      1
   355   352   353      1
   356   352   356      1
   357   352   357      1
   358   353   358      1
   359   358   359      1
   360   358   361      1
   361   358   362      1
   362   359   360      1
   363   359   363      1
   364   359   364      1
   365   360   365      1
   366   365   366      1
   367   365   368      1
   368   365   369      1
   369   366   367      1
   370   366   370      1
   371   366   371      1
   372   367   372      1
   373   372   373      1
   374   372   375      1
   375   372   376      1
   376   373   374      1
   377   373   377      1
   378   373   378      1
   379   374   379      1
   380   379   380      1
   381   379   382      1
   382   379   383      1
   383   380   381      1
   384   380   384      1
   385   380   385      1
   386   381   386      1
   387   386   387      1
   388   386   389      1
   389   386   390      1
   390   387   388      1
   391   387   391      1
   392   387   392      1
   393   388   393      1
   394   393   394      1
   395   393   396      1
   396   393   397      1
   397   394   395      1
   398   394   398      1
   399   394   399      1
   400   395   400      1
   401   400   401      1
   402   400   403      1
   403   400   404      1
   404   401   402      1
   405   401   405      1
   406   401   406      1
   407   402   407      1
   408   407   408      1
   409   407   410      1
   410   407   411      1
   411   408   409      1
   412   408   412      1
   413   408   413      1
   414   409   414      1
   415   414   415      1
   416   414   417      1
   417   414   418      1
   418   415   416      1
   419   415   419      1
   420   415   420      1
   421   416   421      1
   422   421   422      1
   423   421   424      1
   424   421   425      1
   425   422   423      1
   426   422   426      1
   427   422   427      1
   428   423   428      1
   429   428   429      1
   430   428   431      1
   431   428   432      1
   432   429   430      1
   433   429   433      1
   434   429   434      1
   435   430   435      1
   436   435   436      1
   437   435   438      1
   438   435   439      1
   439   436   437      1
   440   436   440      1
   441   436   441      1
   442   437   442      1
   443   442   443      1
   444   442   445      1
   445   442   446      1
   446   443   444      1
   447   443   447      1
   448   443   448      1
   449   444   449      1
   450   449   450      1
   451   449   452      1
   452   449   453      1
   453   450   451      1
   454   450   454      1
   455   450   455      1
   456   451   456      1
   457   456   457      1
   458   456   459      1
   459   456   460      1
   460   457   458      1
   461   457   461      1
   462   457   462      1
   463   458   463      1
   464   463   464      1
   465   463   466      1
   466   463   467      1
   467   464   465      1
   468   464   468      1
   469   464   469      1
   470   465   470      1
   471   470   471      1
   472   470   473      1
   473   470   474      1
   474   471   472      1
   475   471   475      1
   476   471   476      1
   477   472   477      1
   478   477   478      1
   479   477   480      1
   480   477   481      1
   481   478   479      1
   482   478   482      1
   483   478   483      1
   484   479   484      1
   485   484   485      1
   486   484   487      1
   487   484   488      1
   488   485   486      1
   489   485   489      1
   490   485   490      1
   491   486   491      1
   492   491   492      1
   493   491   494      1
   494   491   495      1
   495   492   493      1
   496   492   496      1
   497   492   497      1
   498   493   498      1
   499   498   499      1
   500   498   501      1
   501   498   502      1
   502   499   500      1
   503   499   503      1
   504   499   504      1
   505   500   505      1
   506   505   506      1
   507   505   508      1
   508   505   509      1
   509   506   507      1
   510   506   510      1
   511   506   511      1
   512   507   512      1
   513   512   513      1
   514   512   515      1
   515   512   516      1
   516   513   514      1
   517   513   517      1
   518   513   518      1
   519   514   519      1
   520   519   520      1
   521   519   522      1
   522   519   523      1
   523   520   521      1
   524   520   524      1
   525   520   525      1
   526   521   526      1
   527   526   527      1
   528   526   529      1
   529   526   530      1
   530   527   528      1
   531   527   531      1
   532   527   532      1
   533   528   533      1
   534   533   534      1
   535   533   536      1
   536   533   537      1
   537   534   535      1
   538   534   538      1
   539   534   539      1
   540   535   540      1
   541   540   541      1
   542   540   543      1
   543   540   544      1
   544   541   542      1
   545   541   545      1
   546   541   546      1
   547   542   547      1
   548   547   548      1
   549   547   550      1
   550   547   551      1
   551   548   549      1
   552   548   552      1
   553   548   553      1
   554   549   554      1
   555   554   555      1
   556   554   557      1
   557   554   558      1
   558   555   556      1
   559   555   559      1
   560   555   560      1
   561   556   561      1
   562   561   562      1
   563   561   564      1
   564   561   565      1
   565   562   563      1
   566   562   566      1
   567   562   567      1
   568   563   568      1
   569   568   569      1
   570   568   571      1
   571   568   572      1
   572   569   570      1
   573   569   573      1
   574   569   574      1
   575   570   575      1
   576   575   576      1
   577   575   578      1
   578   575   579      1
   579   576   577      1
   580   576   580      1
   581   576   581      1
   582   577   582      1
   583   582   583      1
   584   582   585      1
   585   582   586      1
   586   583   584      1
   587   583   587      1
   588   583   588      1
   589   584   589      1
   590   589   590      1
   591   589   592      1
   592   589   593      1
   593   590   591      1
   594   590   594      1
   595   590   595      1
   596   591   596      1
   597   596   597      1
   598   596   599      1
   599   596   600      1
   600   597   598      1
   601   597   601      1
   602   597   602      1
   603   598   603      1
   604   603   604      1
   605   603   606      1
   606   603   607      1
   607   604   605      1
   608   604   608      1
   609   604   609      1
   610   605   610      1
   611   610   611      1
   612   610   613      1
   613   610   614      1
   614   611   612      1
   615   611   615      1
   616   611   616      1
   617   612   617      1
   618   617   618      1
   619   617   620      1
   620   617   621      1
   621   618   619      1
   622   618   622      1
   623   618   623      1
   624   619   624      1
   625   624   625      1
   626   624   627      1
   627   624   628      1
   628   625   626      1
   629   625   629      1
   630   625   630      1
   631   626   631      1
   632   631   632      1
   633   631   634      1
   634   631   635      1
   635   632   633      1
   636   632   636      1
   637   632   637      1
   638   633   638      1
   639   638   639      1
   640   638   641      1
   641   638   642      1
   642   639   640      1
   643   639   643      1
   644   639   644      1
   645   640   645      1
   646   645   646      1
   647   645   648      1
   648   645   649      1
   649   646   647      1
   650   646   650      1
   651   646   651      1
   652   647   652      1
   653   652   653      1
   654   652   655      1
   655   652   656      1
   656   653   654      1
   657   653   657      1
   658   653   658      1
   659   654   659      1
   660   659   660      1
   661   659   662      1
   662   659   663      1
   663   660   661      1
   664   660   664      1
   665   660   665      1
   666   661   666      1
   667   666   667      1
   668   666   669      1
   669   666   670      1
   670   667   668      1
   671   667   671      1
   672   667   672      1
   673   668   673      1
   674   673   674      1
   675   673   676      1
   676   673   677      1
   677   674   675      1
   678   674   678      1
   679   674   679      1
   680   675   680      1
   681   680   681      1
   682   680   683      1
   683   680   684      1
   684   681   682      1
   685   681   685      1
   686   681   686      1
   687   682   687      1
   688   687   688      1
   689   687   690      1
   690   687   691      1
   691   688   689      1
   692   688   692      1
   693   688   693      1
   694   689   694      1
   695   694   695      1
   696   694   697      1
   697   694   698      1
   698   695   696      1
   699   695   699      1
   700   695   700      1
   701   696   701      1
   702   701   702      1
   703   701   704      1
   704   701   705      1
   705   702   703      1
   706   702   706      1
   707   702   707      1
   708   703   708      1
   709   708   709      1
   710   708   711      1
   711   708   712      1
   712   709   710      1
   713   709   713      1
   714   709   714      1
   715   710   715      1
   716   715   716      1
   717   715   718      1
   718   715   719      1
   719   716   717      1
   720   716   720      1
   721   716   721      1
   722   717   722      1
   723   722   723      1
   724   722   725      1
   725   722   726      1
   726   723   724      1
   727   723   727      1
   728   723   728      1
   729   724   729      1
   730   729   730      1
   731   729   732      1
   732   729   733      1
   733   730   731      1
   734   730   734      1
   735   730   735      1
   736   731   736      1
   737   736   737      1
   738   736   739      1
   739   736   740      1
   740   737   738      1
   741   737   741      1
   742   737   742      1
   743   738   743      1
   744   743   744      1
   745   743   746      1
   746   743   747      1
   747   744   745      1
   748   744   748      1
   749   744   749      1
   750   745   750      1
   751   750   751      1
   752   750   753      1
   753   750   754      1
   754   751   752      1
   755   751   755      1
   756   751   756      1
   757   752   757      1
   758   757   758      1
   759   757   760      1
   760   757   761      1
   761   758   759      1
   762   758   762      1
   763   758   763      1
   764   759   764      1
   765   764   765      1
   766   764   767      1
   767   764   768      1
   768   765   766      1
   769   765   769      1
   770   765   770      1
   771   766   771      1
   772   771   772      1
   773   771   774      1
   774   771   775      1
   775   772   773      1
   776   772   776      1
   777   772   777      1
   778   773   778      1
   779   778   779      1
   780   778   781      1
   781   778   782      1
   782   779   780      1
   783   779   783      1
   784   779   784      1
   785   780   785      1
   786   785   786      1
   787   785   788      1
   788   785   789      1
   789   786   787      1
   790   786   790      1
   791   786   791      1
   792   787   792      1
   793   792   793      1
   794   792   795      1
   795   792   796      1
   796   793   794      1
   797   793   797      1
   798   793   798      1
   799   794   799      1
   800   799   800      1
   801   799   802      1
   802   799   803      1
   803   800   801      1
   804   800   804      1
   805   800   805      1
   806   801   806      1
   807   806   807      1
   808   806   809      1
   809   806   810      1
   810   807   808      1
   811   807   811      1
   812   807   812      1
   813   808   813      1
   814   813   814      1
   815   813   816      1
   816   813   817      1
   817   814   815      1
   818   814   818      1
   819   814   819      1
   820   815   820      1
   821   820   821      1
   822   820   823      1
   823   820   824      1
   824   821   822      1
   825   821   825      1
   826   821   826      1
   827   822   827      1
   828   827   828      1
   829   827   830      1
   830   827   831      1
   831   828   829      1
   832   828   832      1
   833   828   833      1
   834   829   834      1
   835   834   835      1
   836   834   837      1
   837   834   838      1
   838   835   836      1
   839   835   839      1
   840   835   840      1
   841   836   841      1
   842   841   842      1
   843   841   844      1
   844   841   845      1
   845   842   843      1
   846   842   846      1
   847   842   847      1
   848   843   848      1
   849   848   849      1
   850   848   851      1
   851   848   852      1
   852   849   850      1
   853   849   853      1
   854   849   854      1
   855   850   855      1
   856   855   856      1
   857   855   858      1
   858   855   859      1
   859   856   857      1
   860   856   860      1
   861   856   861      1
   862   857   862      1
   863   862   863      1
   864   862   865      1
   865   862   866      1
   866   863   864      1
   867   863   867      1
   868   863   868      1
   869   864   869      1
   870   869   870      1
   871   869   872      1
   872   869   873      1
   873   870   871      1
   874   870   874      1
   875   870   875      1
   876   871   876      1
   877   876   877      1
   878   876   879      1
   879   876   880      1
   880   877   878      1
   881   877   881      1
   882   877   882      1
   883   878   883      1
   884   883   884      1
   885   883   886      1
   886   883   887      1
   887   884   885      1
   888   884   888      1
   889   884   889      1
   890   885   890      1
   891   890   891      1
   892   890   893      1
   893   890   894      1
   894   891   892      1
   895   891   895      1
   896   891   896      1
   897   892   897      1
   898   897   898      1
   899   897   900      1
   900   897   901      1
   901   898   899      1
   902   898   902      1
   903   898   903      1
   904   899   904      1
   905   904   905      1
   906   904   907      1
   907   904   908      1
   908   905   906      1
   909   905   909      1
   910   905   910      1
   911   906   911      1
   912   911   912      1
   913   911   914      1
   914   911   915      1
   915   912   913      1
   916   912   916      1
   917   912   917      1
   918   913   918      1
   919   918   919      1
   920   918   921      1
   921   918   922      1
   922   919   920      1
   923   919   923      1
   924   919   924      1
   925   920   925      1
   926   925   926      1
   927   925   928      1
   928   925   929      1
   929   926   927      1
   930   926   930      1
   931   926   931      1
   932   927   932      1
   933   932   933      1
   934   932   935      1
   935   932   936      1
   936   933   934      1
   937   933   937      1
   938   933   938      1
   939   934   939      1
   940   939   940      1
   941   939   942      1
   942   939   943      1
   943   940   941      1
   944   940   944      1
   945   940   945      1
   946   941   946      1
   947   946   947      1
   948   946   949      1
   949   946   950      1
   950   947   948      1
   951   947   951      1
   952   947   952      1
   953   948   953      1
   954   953   954      1
   955   953   956      1
   956   953   957      1
   957   954   955      1
   958   954   958      1
   959   954   959      1
   960   955   960      1
   961   960   961      1
   962   960   963      1
   963   960   964      1
   964   961   962      1
   965   961   965      1
   966   961   966      1
   967   962   967      1
   968   967   968      1
   969   967   970      1
   970   967   971      1
   971   968   969      1
   972   968   972      1
   973   968   973      1
   974   969   974      1
   975   974   975      1
   976   974   977      1
   977   974   978      1
   978   975   976      1
   979   975   979      1
   980   975   980      1
   981   976   981      1
   982   981   982      1
   983   981   984      1
   984   981   985      1
   985   982   983      1
   986   982   986      1
   987   982   987      1
   988   983   988      1
   989   988   989      1
   990   988   991      1
   991   988   992      1
   992   989   990      1
   993   989   993      1
   994   989   994      1
   995   990   995      1
   996   995   996      1
   997   995   998      1
   998   995   999      1
   999   996   997      1
  1000   996  1000      1
  1001   996  1001      1
  1002   997  1002      1
  1003  1002  1003      1
  1004  1002  1005      1
  1005  1002  1006      1
  1006  1003  1004      1
  1007  1003  1007      1
  1008  1003  1008      1
  1009  1004  1009      1
  1010  1009  1010      1
  1011  1009  1012      1
  1012  1009  1013      1
  1013  1010  1011      1
  1014  1010  1014      1
  1015  1010  1015      1
  1016  1011  1016      1
  1017  1016  1017      1
  1018  1016  1019      1
  1019  1016  1020      1
  1020  1017  1018      1
  1021  1017  1021      1
  1022  1017  1022      1
  1023  1018  1023      1
  1024  1023  1024      1
  1025  1023  1026      1
  1026  1023  1027      1
  1027  1024  1025      1
  1028  1024  1028      1
  1029  1024  1029      1
  1030  1025  1030      1
  1031  1030  1031      1
  1032  1030  1033      1
  1033  1030  1034      1
  1034  1031  1032      1
  1035  1031  1035      1
  1036  1031  1036      1
  1037  1032  1037      1
  1038  1037  1038      1
  1039  1037  1040      1
  1040  1037  1041      1
  1041  1038  1039      1
  1042  1038  1042      1
  1043  1038  1043      1
  1044  1039  1044      1
  1045  1044  1045      1
  1046  1044  1047      1
  1047  1044  1048      1
  1048  1045  1046      1
  1049  1045  1049      1
  1050  1045  1050      1
  1051  1046  1051      1
  1052  1051  1052      1
  1053  1051  1054      1
  1054  1051  1055      1
  1055  1052  1053      1
  1056  1052  1056      1
  1057  1052  1057      1
  1058  1053  1058      1
  1059  1058  1059      1
  1060  1058  1061      1
  1061  1058  1062      1
  1062  1059  1060      1
  1063  1059  1063      1
  1064  1059  1064      1
  1065  1060  1065      1
  1066  1065  1066      1
  1067  1065  1068      1
  1068  1065  1069      1
  1069  1066  1067      1
  1070  1066  1070      1
  1071  1066  1071      1
  1072  1067  1072      1
  1073  1072  1073      1
  1074  1072  1075      1
  1075  1072  1076      1
  1076  1073  1074      1
  1077  1073  1077      1
  1078  1073  1078      1
  1079  1074  1079      1
  1080  1079  1080      1
  1081  1079  1082      1
  1082  1079  1083      1
  1083  1080  1081      1
  1084  1080  1084      1
  1085  1080  1085      1
  1086  1081  1086      1
  1087  1086  1087      1
  1088  1086  1089      1
  1089  1086  1090      1
  1090  1087  1088      1
  1091  1087  1091      1
  1092  1087  1092      1
  1093  1088  1093      1
  1094  1093  1094      1
  1095  1093  1096      1
  1096  1093  1097      1
  1097  1094  1095      1
  1098  1094  1098      1
  1099  1094  1099      1
  1100  1095  1100      1
  1101  1100  1101      1
  1102  1100  1103      1
  1103  1100  1104      1
  1104  1101  1102      1
  1105  1101  1105      1
  1106  1101  1106      1
  1107  1102  1107      1
  1108  1107  1108      1
  1109  1107  1110      1
  1110  1107  1111      1
  1111  1108  1109      1
  1112  1108  1112      1
  1113  1108  1113      1
  1114  1109  1114      1
  1115  1114  1115      1
  1116  1114  1117      1
  1117  1114  1118      1
  1118  1115  1116      1
  1119  1115  1119      1
  1120  1115  1120      1
  1121  1116  1121      1
  1122  1121  1122      1
  1123  1121  1124      1
  1124  1121  1125      1
  1125  1122  1123      1
  1126  1122  1126      1
  1127  1122  1127      1
  1128  1123  1128      1
  1129  1128  1129      1
  1130  1128  1131      1
  1131  1128  1132      1
  1132  1129  1130      1
  1133  1129  1133      1
  1134  1129  1134      1
  1135  1130  1135      1
  1136  1135  1136      1
  1137  1135  1138      1
  1138  1135  1139      1
  1139  1136  1137      1
  1140  1136  1140      1
  1141  1136  1141      1
  1142  1137  1142      1
  1143  1142  1143      1
  1144  1142  1145      1
  1145  1142  1146      1
  1146  1143  1144      1
  1147  1143  1147      1
  1148  1143  1148      1
  1149  1144  1149      1
  1150  1149  1150      1
  1151  1149  1152      1
  1152  1149  1153      1
  1153  1150  1151      1
  1154  1150  1154      1
  1155  1150  1155      1
  1156  1151  1156      1
  1157  1156  1157      1
  1158  1156  1159      1
  1159  1156  1160      1
  1160  1157  1158      1
  1161  1157  1161      1
  1162  1157  1162      1
  1163  1158  1163      1
  1164  1163  1164      1
  1165  1163  1166      1
  1166  1163  1167      1
  1167  1164  1165      1
  1168  1164  1168      1
  1169  1164  1169      1
  1170  1165  1170      1
  1171  1170  1171      1
  1172  1170  1173      1
  1173  1170  1174      1
  1174  1171  1172      1
  1175  1171  1175      1
  1176  1171  1176      1
  1177  1172  1177      1
  1178  1177  1178      1
  1179  1177  1180      1
  1180  1177  1181      1
  1181  1178  1179      1
  1182  1178  1182      1
  1183  1178  1183      1
  1184  1179  1184      1
  1185  1184  1185      1
  1186  1184  1187      1
  1187  1184  1188      1
  1188  1185  1186      1
  1189  1185  1189      1
  1190  1185  1190      1
  1191  1186  1191      1
  1192  1191  1192      1
  1193  1191  1194      1
  1194  1191  1195      1
  1195  1192  1193      1
  1196  1192  1196      1
  1197  1192  1197      1
  1198  1193  1198      1
  1199  1198  1199      1
  1200  1198  1201      1
  1201  1198  1202      1
  1202  1199  1200      1
  1203  1199  1203      1
  1204  1199  1204      1
  1205  1200  1205      1
  1206  1205  1206      1
  1207  1205  1208      1
  1208  1205  1209      1
  1209  1206  1207      1
  1210  1206  1210      1
  1211  1206  1211      1
  1212  1207  1212      1
  1213  1212  1213      1
  1214  1212  1215      1
  1215  1212  1216      1
  1216  1213  1214      1
  1217  1213  1217      1
  1218  1213  1218      1
  1219  1214  1219      1
  1220  1219  1220      1
  1221  1219  1222      1
  1222  1219  1223      1
  1223  1220  1221      1
  1224  1220  1224      1
  1225  1220  1225      1
  1226  1221  1226      1
  1227  1226  1227      1
  1228  1226  1229      1
  1229  1226  1230      1
  1230  1227  1228      1
  1231  1227  1231      1
  1232  1227  1232      1
  1233  1228  1233      1
  1234  1233  1234      1
  1235  1233  1236      1
  1236  1233  1237      1
  1237  1234  1235      1
  1238  1234  1238      1
  1239  1234  1239      1
  1240  1235  1240      1
  1241  1240  1241      1
  1242  1240  1243      1
  1243  1240  1244      1
  1244  1241  1242      1
  1245  1241  1245      1
  1246  1241  1246      1
  1247  1242  1247      1
  1248  1247  1248      1
  1249  1247  1250      1
  1250  1247  1251      1
  1251  1248  1249      1
  1252  1248  1252      1
  1253  1248  1253      1
  1254  1249  1254      1
  1255  1254  1255      1
  1256  1254  1257      1
  1257  1254  1258      1
  1258  1255  1256      1
  1259  1255  1259      1
  1260  1255  1260      1
  1261  1256  1261      1
  1262  1261  1262      1
  1263  1261  1264      1
  1264  1261  1265      1
  1265  1262  1263      1
  1266  1262  1266      1
  1267  1262  1267      1
  1268  1263  1268      1
  1269  1268  1269      1
  1270  1268  1271      1
  1271  1268  1272      1
  1272  1269  1270      1
  1273  1269  1273      1
  1274  1269  1274      1
  1275  1270  1275      1
  1276  1275  1276      1
  1277  1275  1278      1
  1278  1275  1279      1
  1279  1276  1277      1
  1280  1276  1280      1
  1281  1276  1281      1
  1282  1277  1282      1
  1283  1282  1283      1
  1284  1282  1285      1
  1285  1282  1286      1
  1286  1283  1284      1
  1287  1283  1287      1
  1288  1283  1288      1
  1289  1284  1289      1
  1290  1289  1290      1
  1291  1289  1292      1
  1292  1289  1293      1
  1293  1290  1291      1
  1294  1290  1294      1
  1295  1290  1295      1
  1296  1291  1296      1
  1297  1296  1297      1
  1298  1296  1299      1
  1299  1296  1300      1
  1300  1297  1298      1
  1301  1297  1301      1
  1302  1297  1302      1
  1303  1298  1303      1
  1304  1303  1304      1
  1305  1303  1306      1
  1306  1303  1307      1
  1307  1304  1305      1
  1308  1304  1308      1
  1309  1304  1309      1
  1310  1305  1310      1
  1311  1310  1311      1
  1312  1310  1313      1
  1313  1310  1314      1
  1314  1311  1312      1
  1315  1311  1315      1
  1316  1311  1316      1
  1317  1312  1317      1
  1318  1317  1318      1
  1319  1317  1320      1
  1320  1317  1321      1
  1321  1318  1319      1
  1322  1318  1322      1
  1323  1318  1323      1
  1324  1319  1324      1
  1325  1324  1325      1
  1326  1324  1327      1
  1327  1324  1328      1
  1328  1325  1326      1
  1329  1325  1329      1
  1330  1325  1330      1
  1331  1326  1331      1
  1332  1331  1332      1
  1333  1331  1334      1
  1334  1331  1335      1
  1335  1332  1333      1
  1336  1332  1336      1
  1337  1332  1337      1
  1338  1333  1338      1
  1339  1338  1339      1
  1340  1338  1341      1
  1341  1338  1342      1
  1342  1339  1340      1
  1343  1339  1343      1
  1344  1339  1344      1
  1345  1340  1345      1
  1346  1345  1346      1
  1347  1345  1348      1
  1348  1345  1349      1
  1349  1346  1347      1
  1350  1346  1350      1
  1351  1346  1351      1
  1352  1347  1352      1
  1353  1352  1353      1
  1354  1352  1355      1
  1355  1352  1356      1
  1356  1353  1354      1
  1357  1353  1357      1
  1358  1353  1358      1
  1359  1354  1359      1
  1360  1359  1360      1
  1361  1359  1362      1
  1362  1359  1363      1
  1363  1360  1361      1
  1364  1360  1364      1
  1365  1360  1365      1
  1366  1361  1366      1
  1367  1366  1367      1
  1368  1366  1369      1
  1369  1366  1370      1
  1370  1367  1368      1
  1371  1367  1371      1
  1372  1367  1372      1
  1373  1368  1373      1
  1374  1373  1374      1
  1375  1373  1376      1
  1376  1373  1377      1
  1377  1374  1375      1
  1378  1374  1378      1
  1379  1374  1379      1
  1380  1375  1380      1
  1381  1380  1381      1
  1382  1380  1383      1
  1383  1380  1384      1
  1384  1381  1382      1
  1385  1381  1385      1
  1386  1381  1386      1
  1387  1382  1387      1
  1388  1387  1388      1
  1389  1387  1390      1
  1390  1387  1391      1
  1391  1388  1389      1
  1392  1388  1392      1
  1393  1388  1393      1
  1394  1389  1394      1
  1395  1394  1395      1
  1396  1394  1397      1
  1397  1394  1398      1
  1398  1395  1396      1
  1399  1395  1399      1
  1400  1395  1400      1
  1401  1396  1401      1
  1402  1401  1402      1
  1403  1401  1404      1
  1404  1401  1405      1
  1405  1402  1403      1
  1406  1402  1406      1
  1407  1402  1407      1
  1408  1403  1408      1
  1409  1408  1409      1
  1410  1408  1411      1
  1411  1408  1412      1
  1412  1409  1410      1
  1413  1409  1413      1
  1414  1409  1414      1
  1415  1410  1415      1
  1416  1415  1416      1
  1417  1415  1418      1
  1418  1415  1419      1
  1419  1416  1417      1
  1420  1416  1420      1
  1421  1416  1421      1
  1422  1417  1422      1
  1423  1422  1423      1
  1424  1422  1425      1
  1425  1422  1426      1
  1426  1423  1424      1
  1427  1423  1427      1
  1428  1423  1428      1
  1429  1424  1429      1
  1430  1429  1430      1
  1431  1429  1432      1
  1432  1429  1433      1
  1433  1430  1431      1
  1434  1430  1434      1
  1435  1430  1435      1
  1436  1431  1436      1
  1437  1436  1437      1
  1438  1436  1439      1
  1439  1436  1440      1
  1440  1437  1438      1
  1441  1437  1441      1
  1442  1437  1442      1
  1443  1438  1443      1
  1444  1443  1444      1
  1445  1443  1446      1
  1446  1443  1447      1
  1447  1444  1445      1
  1448  1444  1448      1
  1449  1444  1449      1
  1450  1445  1450      1
  1451  1450  1451      1
  1452  1450  1453      1
  1453  1450  1454      1
  1454  1451  1452      1
  1455  1451  1455      1
  1456  1451  1456      1
  1457  1452  1457      1
  1458  1457  1458      1
  1459  1457  1460      1
  1460  1457  1461      1
  1461  1458  1459      1
  1462  1458  1462      1
  1463  1458  1463      1
  1464  1459  1464      1
  1465  1464  1465      1
  1466  1464  1467      1
  1467  1464  1468      1
  1468  1465  1466      1
  1469  1465  1469      1
  1470  1465  1470      1
  1471  1466  1471      1
  1472  1471  1472      1
  1473  1471  1474      1
  1474  1471  1475      1
  1475  1472  1473      1
  1476  1472  1476      1
  1477  1472  1477      1
  1478  1473  1478      1
  1479  1478  1479      1
  1480  1478  1481      1
  1481  1478  1482      1
  1482  1479  1480      1
  1483  1479  1483      1
  1484  1479  1484      1
  1485  1480  1485      1
  1486  1485  1486      1
  1487  1485  1488      1
  1488  1485  1489      1
  1489  1486  1487      1
  1490  1486  1490      1
  1491  1486  1491      1
  1492  1487  1492      1
  1493  1492  1493      1
  1494  1492  1495      1
  1495  1492  1496      1
  1496  1493  1494      1
  1497  1493  1497      1
  1498  1493  1498      1
  1499  1494  1499      1
  1500  1499  1500      1
  1501  1499  1502      1
  1502  1499  1503      1
  1503  1500  1501      1
  1504  1500  1504      1
  1505  1500  1505      1
  1506  1501  1506      1
  1507  1506  1507      1
  1508  1506  1509      1
  1509  1506  1510      1
  1510  1507  1508      1
  1511  1507  1511      1
  1512  1507  1512      1
  1513  1508  1513      1
  1514  1513  1514      1
  1515  1513  1516      1
  1516  1513  1517      1
  1517  1514  1515      1
  1518  1514  1518      1
  1519  1514  1519      1
  1520  1515  1520      1
  1521  1520  1521      1
  1522  1520  1523      1
  1523  1520  1524      1
  1524  1521  1522      1
  1525  1521  1525      1
  1526  1521  1526      1
  1527  1522  1527      1
  1528  1527  1528      1
  1529  1527  1530      1
  1530  1527  1531      1
  1531  1528  1529      1
  1532  1528  1532      1
  1533  1528  1533      1
  1534  1529  1534      1
  1535  1534  1535      1
  1536  1534  1537      1
  1537  1534  1538      1
  1538  1535  1536      1
  1539  1535  1539      1
  1540  1535  1540      1
  1541  1536  1541      1
  1542  1541  1542      1
  1543  1541  1544      1
  1544  1541  1545      1
  1545  1542  1543      1
  1546  1542  1546      1
  1547  1542  1547      1
  1548  1543  1548      1
  1549  1548  1549      1
  1550  1548  1551      1
  1551  1548  1552      1
  1552  1549  1550      1
  1553  1549  1553      1
  1554  1549  1554      1
  1555  1550  1555      1
  1556  1555  1556      1
  1557  1555  1558      1
  1558  1555  1559      1
  1559  1556  1557      1
  1560  1556  1560      1
  1561  1556  1561      1
  1562  1557  1562      1
  1563  1562  1563      1
  1564  1562  1565      1
  1565  1562  1566      1
  1566  1563  1564      1
  1567  1563  1567      1
  1568  1563  1568      1
  1569  1564  1569      1
  1570  1569  1570      1
  1571  1569  1572      1
  1572  1569  1573      1
  1573  1570  1571      1
  1574  1570  1574      1
  1575  1570  1575      1
  1576  1571  1576      1
  1577  1576  1577      1
  1578  1576  1579      1
  1579  1576  1580      1
  1580  1577  1578      1
  1581  1577  1581      1
  1582  1577  1582      1
  1583  1578  1583      1
  1584  1583  1584      1
  1585  1583  1586      1
  1586  1583  1587      1
  1587  1584  1585      1
  1588  1584  1588      1
  1589  1584  1589      1
  1590  1585  1590      1
  1591  1590  1591      1
  1592  1590  1593      1
  1593  1590  1594      1
  1594  1591  1592      1
  1595  1591  1595      1
  1596  1591  1596      1
  1597  1592  1597      1
  1598  1597  1598      1
  1599  1597  1600      1
  1600  1597  1601      1
  1601  1598  1599      1
  1602  1598  1602      1
  1603  1598  1603      1
  1604  1599  1604      1
  1605  1604  1605      1
  1606  1604  1607      1
  1607  1604  1608      1
  1608  1605  1606      1
  1609  1605  1609      1
  1610  1605  1610      1
  1611  1606  1611      1
  1612  1611  1612      1
  1613  1611  1614      1
  1614  1611  1615      1
  1615  1612  1613      1
  1616  1612  1616      1
  1617  1612  1617      1
  1618  1613  1618      1
  1619  1618  1619      1
  1620  1618  1621      1
  1621  1618  1622      1
  1622  1619  1620      1
  1623  1619  1623      1
  1624  1619  1624      1
  1625  1620  1625      1
  1626  1625  1626      1
  1627  1625  1628      1
  1628  1625  1629      1
  1629  1626  1627      1
  1630  1626  1630      1
  1631  1626  1631      1
  1632  1627  1632      1
  1633  1632  1633      1
  1634  1632  1635      1
  1635  1632  1636      1
  1636  1633  1634      1
  1637  1633  1637      1
  1638  1633  1638      1
  1639  1634  1639      1
  1640  1639  1640      1
  1641  1639  1642      1
  1642  1639  1643      1
  1643  1640  1641      1
  1644  1640  1644      1
  1645  1640  1645      1
  1646  1641  1646      1
  1647  1646  1647      1
  1648  1646  1649      1
  1649  1646  1650      1
  1650  1647  1648      1
  1651  1647  1651      1
  1652  1647  1652      1
  1653  1648  1653      1
  1654  1653  1654      1
  1655  1653  1656      1
  1656  1653  1657      1
  1657  1654  1655      1
  1658  1654  1658      1
  1659  1654  1659      1
  1660  1655  1660      1
  1661  1660  1661      1
  1662  1660  1663      1
  1663  1660  1664      1
  1664  1661  1662      1
  1665  1661  1665      1
  1666  1661  1666      1
  1667  1662  1667      1
  1668  1667  1668      1
  1669  1667  1670      1
  1670  1667  1671      1
  1671  1668  1669      1
  1672  1668  1672      1
  1673  1668  1673      1
  1674  1669  1674      1
  1675  1674  1675      1
  1676  1674  1677      1
  1677  1674  1678      1
  1678  1675  1676      1
  1679  1675  1679      1
  1680  1675  1680      1
  1681  1676  1681      1
  1682  1681  1682      1
  1683  1681  1684      1
  1684  1681  1685      1
  1685  1682  1683      1
  1686  1682  1686      1
  1687  1682  1687      1
  1688  1683  1688      1
  1689  1688  1689      1
  1690  1688  1691      1
  1691  1688  1692      1
  1692  1689  1690      1
  1693  1689  1693      1
  1694  1689  1694      1
  1695  1690  1695      1
  1696  1695  1696      1
  1697  1695  1698      1
  1698  1695  1699      1
  1699  1696  1697      1
  1700  1696  1700      1
  1701  1696  1701      1
  1702  1697  1702      1
  1703  1702  1703      1
  1704  1702  1705      1
  1705  1702  1706      1
  1706  1703  1704      1
  1707  1703  1707      1
  1708  1703  1708      1
  1709  1704  1709      1
  1710  1709  1710      1
  1711  1709  1712      1
  1712  1709  1713      1
  1713  1710  1711      1
  1714  1710  1714      1
  1715  1710  1715      1
  1716  1711  1716      1
  1717  1716  1717      1
  1718  1716  1719      1
  1719  1716  1720      1
  1720  1717  1718      1
  1721  1717  1721      1
  1722  1717  1722      1
  1723  1718  1723      1
  1724  1723  1724      1
  1725  1723  1726      1
  1726  1723  1727      1
  1727  1724  1725      1
  1728  1724  1728      1
  1729  1724  1729      1
  1730  1725  1730      1
  1731  1730  1731      1
  1732  1730  1733      1
  1733  1730  1734      1
  1734  1731  1732      1
  1735  1731  1735      1
  1736  1731  1736      1
  1737  1732  1737      1
  1738  1737  1738      1
  1739  1737  1740      1
  1740  1737  1741      1
  1741  1738  1739      1
  1742  1738  1742      1
  1743  1738  1743      1
  1744  1739  1744      1
  1745  1744  1745      1
  1746  1744  1747      1
  1747  1744  1748      1
  1748  1745  1746      1
  1749  1745  1749      1
  1750  1745  1750      1
  1751  1746  1751      1
  1752  1751  1752      1
  1753  1751  1754      1
  1754  1751  1755      1
  1755  1752  1753      1
  1756  1752  1756      1
  1757  1752  1757      1
  1758  1753  1758      1
  1759  1758  1759      1
  1760  1758  1761      1
  1761  1758  1762      1
  1762  1759  1760      1
  1763  1759  1763      1
  1764  1759  1764      1
  1765  1760  1765      1
  1766  1765  1766      1
  1767  1765  1768      1
  1768  1765  1769      1
  1769  1766  1767      1
  1770  1766  1770      1
  1771  1766  1771      1
  1772  1767  1772      1
  1773  1772  1773      1
  1774  1772  1775      1
  1775  1772  1776      1
  1776  1773  1774      1
  1777  1773  1777      1
  1778  1773  1778      1
  1779  1774  1779      1
  1780  1779  1780      1
  1781  1779  1782      1
  1782  1779  1783      1
  1783  1780  1781      1
  1784  1780  1784      1
  1785  1780  1785      1
  1786  1781  1786      1
  1787  1786  1787      1
  1788  1786  1789      1
  1789  1786  1790      1
  1790  1787  1788      1
  1791  1787  1791      1
  1792  1787  1792      1
  1793  1788  1793      1
  1794  1793  1794      1
  1795  1793  1796      1
  1796  1793  1797      1
  1797  1794  1795      1
  1798  1794  1798      1
  1799  1794  1799      1
  1800  1795  1800      1
  1801  1800  1801      1
  1802  1800  1803      1
  1803  1800  1804      1
  1804  1801  1802      1
  1805  1801  1805      1
  1806  1801  1806      1
  1807  1802  1807      1
  1808  1807  1808      1
  1809  1807  1810      1
  1810  1807  1811      1
  1811  1808  1809      1
  1812  1808  1812      1
  1813  1808  1813      1
  1814  1809  1814      1
  1815  1814  1815      1
  1816  1814  1817      1
  1817  1814  1818      1
  1818  1815  1816      1
  1819  1815  1819      1
  1820  1815  1820      1
  1821  1816  1821      1
  1822  1821  1822      1
  1823  1821  1824      1
  1824  1821  1825      1
  1825  1822  1823      1
  1826  1822  1826      1
  1827  1822  1827      1
  1828  1823  1828      1
  1829  1828  1829      1
  1830  1828  1831      1
  1831  1828  1832      1
  1832  1829  1830      1
  1833  1829  1833      1
  1834  1829  1834      1
  1835  1830  1835      1
  1836  1835  1836      1
  1837  1835  1838      1
  1838  1835  1839      1
  1839  1836  1837      1
  1840  1836  1840      1
  1841  1836  1841      1
  1842  1837  1842      1
  1843  1842  1843      1
  1844  1842  1845      1
  1845  1842  1846      1
  1846  1843  1844      1
  1847  1843  1847      1
  1848  1843  1848      1
  1849  1844  1849      1
  1850  1849  1850      1
  1851  1849  1852      1
  1852  1849  1853      1
  1853  1850  1851      1
  1854  1850  1854      1
  1855  1850  1855      1
  1856  1851  1856      1
  1857  1856  1857      1
  1858  1856  1859      1
  1859  1856  1860      1
  1860  1857  1858      1
  1861  1857  1861      1
  1862  1857  1862      1
  1863  1858  1863      1
  1864  1863  1864      1
  1865  1863  1866      1
  1866  1863  1867      1
  1867  1864  1865      1
  1868  1864  1868      1
  1869  1864  1869      1
  1870  1865  1870      1
  1871  1870  1871      1
  1872  1870  1873      1
  1873  1870  1874      1
  1874  1871  1872      1
  1875  1871  1875      1
  1876  1871  1876      1
  1877  1872  1877      1
  1878  1877  1878      1
  1879  1877  1880      1
  1880  1877  1881      1
  1881  1878  1879      1
  1882  1878  1882      1
  1883  1878  1883      1
  1884  1879  1884      1
  1885  1884  1885      1
  1886  1884  1887      1
  1887  1884  1888      1
  1888  1885  1886      1
  1889  1885  1889      1
  1890  1885  1890      1
  1891  1886  1891      1
  1892  1891  1892      1
  1893  1891  1894      1
  1894  1891  1895      1
  1895  1892  1893      1
  1896  1892  1896      1
  1897  1892  1897      1
  1898  1893  1898      1
  1899  1898  1899      1
  1900  1898  1901      1
  1901  1898  1902      1
  1902  1899  1900      1
  1903  1899  1903      1
  1904  1899  1904      1
  1905  1900  1905      1
  1906  1905  1906      1
  1907  1905  1908      1
  1908  1905  1909      1
  1909  1906  1907      1
  1910  1906  1910      1
  1911  1906  1911      1
  1912  1907  1912      1
  1913  1912  1913      1
  1914  1912  1915      1
  1915  1912  1916      1
  1916  1913  1914      1
  1917  1913  1917      1
  1918  1913  1918      1
  1919  1914  1919      1
  1920  1919  1920      1
  1921  1919  1922      1
  1922  1919  1923      1
  1923  1920  1921      1
  1924  1920  1924      1
  1925  1920  1925      1
  1926  1921  1926      1
  1927  1926  1927      1
  1928  1926  1929      1
  1929  1926  1930      1
  1930  1927  1928      1
  1931  1927  1931      1
  1932  1927  1932      1
  1933  1928  1933      1
  1934  1933  1934      1
  1935  1933  1936      1
  1936  1933  1937      1
  1937  1934  1935      1
  1938  1934  1938      1
  1939  1934  1939      1
  1940  1935  1940      1
  1941  1940  1941      1
  1942  1940  1943      1
  1943  1940  1944      1
  1944  1941  1942      1
  1945  1941  1945      1
  1946  1941  1946      1
  1947  1942  1947      1
  1948  1947  1948      1
  1949  1947  1950      1
  1950  1947  1951      1
  1951  1948  1949      1
  1952  1948  1952      1
  1953  1948  1953      1
  1954  1949  1954      1
  1955  1954  1955      1
  1956  1954  1957      1
  1957  1954  1958      1
  1958  1955  1956      1
  1959  1955  1959      1
  1960  1955  1960      1
  1961  1956  1961      1
  1962  1961  1962      1
  1963  1961  1964      1
  1964  1961  1965      1
  1965  1962  1963      1
  1966  1962  1966      1
  1967  1962  1967      1
  1968  1963  1968      1
  1969  1968  1969      1
  1970  1968  1971      1
  1971  1968  1972      1
  1972  1969  1970      1
  1973  1969  1973      1
  1974  1969  1974      1
  1975  1970  1975      1
  1976  1975  1976      1
  1977  1975  1978      1
  1978  1975  1979      1
  1979  1976  1977      1
  1980  1976  1980      1
  1981  1976  1981      1
  1982  1977  1982      1
  1983  1982  1983      1
  1984  1982  1985      1
  1985  1982  1986      1
  1986  1983  1984      1
  1987  1983  1987      1
  1988  1983  1988      1
  1989  1984  1989      1
  1990  1989  1990      1
  1991  1989  1992      1
  1992  1989  1993      1
  1993  1990  1991      1
  1994  1990  1994      1
  1995  1990  1995      1
  1996  1991  1996      1
  1997  1996  1997      1
  1998  1996  1999      1
  1999  1996  2000      1
  2000  1997  1998      1
  2001  1997  2001      1
  2002  1997  2002      1
  2003  1998  2003      1
  2004  2003  2004      1
  2005  2003  2006      1
  2006  2003  2007      1
  2007  2004  2005      1
  2008  2004  2008      1
  2009  2004  2009      1
  2010  2005  2010      1
  2011  2010  2011      1
  2012  2010  2013      1
  2013  2010  2014      1
  2014  2011  2012      1
  2015  2011  2015      1
  2016  2011  2016      1
  2017  2012  2017      1
  2018  2017  2018      1
  2019  2017  2020      1
  2020  2017  2021      1
  2021  2018  2019      1
  2022  2018  2022      1
  2023  2018  2023      1
  2024  2019  2024      1
  2025  2024  2025      1
  2026  2024  2027      1
  2027  2024  2028      1
  2028  2025  2026      1
  2029  2025  2029      1
  2030  2025  2030      1
  2031  2026  2031      1
  2032  2031  2032      1
  2033  2031  2034      1
  2034  2031  2035      1
  2035  2032  2033      1
  2036  2032  2036      1
  2037  2032  2037      1
  2038  2033  2038      1
  2039  2038  2039      1
  2040  2038  2041      1
  2041  2038  2042      1
  2042  2039  2040      1
  2043  2039  2043      1
  2044  2039  2044      1
  2045  2040  2045      1
  2046  2045  2046      1
  2047  2045  2048      1
  2048  2045  2049      1
  2049  2046  2047      1
  2050  2046  2050      1
  2051  2046  2051      1
  2052  2047  2052      1
  2053  2052  2053      1
  2054  2052  2055      1
  2055  2052  2056      1
  2056  2053  2054      1
  2057  2053  2057      1
  2058  2053  2058      1
  2059  2054  2059      1
  2060  2059  2060      1
  2061  2059  2062      1
  2062  2059  2063      1
  2063  2060  2061      1
  2064  2060  2064      1
  2065  2060  2065      1
  2066  2061  2066      1
  2067  2066  2067      1
  2068  2066  2069      1
  2069  2066  2070      1
  2070  2067  2068      1
  2071  2067  2071      1
  2072  2067  2072      1
  2073  2068  2073      1
  2074  2073  2074      1
  2075  2073  2076      1
  2076  2073  2077      1
  2077  2074  2075      1
  2078  2074  2078      1
  2079  2074  2079      1
  2080  2075  2080      1
  2081  2080  2081      1
  2082  2080  2083      1
  2083  2080  2084      1
  2084  2081  2082      1
  2085  2081  2085      1
  2086  2081  2086      1
  2087  2082  2087      1
  2088  2087  2088      1
  2089  2087  2090      1
  2090  2087  2091      1
  2091  2088  2089      1
  2092  2088  2092      1
  2093  2088  2093      1
  2094  2089  2094      1
  2095  2094  2095      1
  2096  2094  2097      1
  2097  2094  2098      1
  2098  2095  2096      1
  2099  2095  2099      1
  2100  2095  2100      1
  2101  2096  2101      1
  2102  2101  2102      1
  2103  2101  2104      1
  2104  2101  2105      1
  2105  2102  2103      1
  2106  2102  2106      1
  2107  2102  2107      1
  2108  2103  2108      1
  2109  2108  2109      1
  2110  2108  2111      1
  2111  2108  2112      1
  2112  2109  2110      1
  2113  2109  2113      1
  2114  2109  2114      1
  2115  2110  2115      1
  2116  2115  2116      1
  2117  2115  2118      1
  2118  2115  2119      1
  2119  2116  2117      1
  2120  2116  2120      1
  2121  2116  2121      1
  2122  2117  2122      1
  2123  2122  2123      1
  2124  2122  2125      1
  2125  2122  2126      1
  2126  2123  2124      1
  2127  2123  2127      1
  2128  2123  2128      1
  2129  2124  2129      1
  2130  2129  2130      1
  2131  2129  2132      1
  2132  2129  2133      1
  2133  2130  2131      1
  2134  2130  2134      1
  2135  2130  2135      1
  2136  2131  2136      1
  2137  2136  2137      1
  2138  2136  2139      1
  2139  2136  2140      1
  2140  2137  2138      1
  2141  2137  2141      1
  2142  2137  2142      1
  2143  2138  2143      1
  2144  2143  2144      1
  2145  2143  2146      1
  2146  2143  2147      1
  2147  2144  2145      1
  2148  2144  2148      1
  2149  2144  2149      1
  2150  2145  2150      1
  2151  2150  2151      1
  2152  2150  2153      1
  2153  2150  2154      1
  2154  2151  2152      1
  2155  2151  2155      1
  2156  2151  2156      1
  2157  2152  2157      1
  2158  2157  2158      1
  2159  2157  2160      1
  2160  2157  2161      1
  2161  2158  2159      1
  2162  2158  2162      1
  2163  2158  2163      1
  2164  2159  2164      1
  2165  2164  2165      1
  2166  2164  2167      1
  2167  2164  2168      1
  2168  2165  2166      1
  2169  2165  2169      1
  2170  2165  2170      1
  2171  2166  2171      1
  2172  2171  2172      1
  2173  2171  2174      1
  2174  2171  2175      1
  2175  2172  2173      1
  2176  2172  2176      1
  2177  2172  2177      1
  2178  2173  2178      1
  2179  2178  2179      1
  2180  2178  2181      1
  2181  2178  2182      1
  2182  2179  2180      1
  2183  2179  2183      1
  2184  2179  2184      1
  2185  2180  2185      1
  2186  2185  2186      1
  2187  2185  2188      1
  2188  2185  2189      1
  2189  2186  2187      1
  2190  2186  2190      1
  2191  2186  2191      1
  2192  2187  2192      1
  2193  2192  2193      1
  2194  2192  2195      1
  2195  2192  2196      1
  2196  2193  2194      1
  2197  2193  2197      1
  2198  2193  2198      1
  2199  2194  2199      1
  2200  2199  2200      1
  2201  2199  2202      1
  2202  2199  2203      1
  2203  2200  2201      1
  2204  2200  2204      1
  2205  2200  2205      1
  2206  2201  2206      1
  2207  2206  2207      1
  2208  2206  2209      1
  2209  2206  2210      1
  2210  2207  2208      1
  2211  2207  2211      1
  2212  2207  2212      1
  2213  2208  2213      1
  2214  2213  2214      1
  2215  2213  2216      1
  2216  2213  2217      1
  2217  2214  2215      1
  2218  2214  2218      1
  2219  2214  2219      1
  2220  2215  2220      1
  2221  2220  2221      1
  2222  2220  2223      1
  2223  2220  2224      1
  2224  2221  2222      1
  2225  2221  2225      1
  2226  2221  2226      1
  2227  2222  2227      1
  2228  2227  2228      1
  2229  2227  2230      1
  2230  2227  2231      1
  2231  2228  2229      1
  2232  2228  2232      1
  2233  2228  2233      1
  2234  2229  2234      1
  2235  2234  2235      1
  2236  2234  2237      1
  2237  2234  2238      1
  2238  2235  2236      1
  2239  2235  2239      1
  2240  2235  2240      1
  2241  2236  2241      1
  2242  2241  2242      1
  2243  2241  2244      1
  2244  2241  2245      1
  2245  2242  2243      1
  2246  2242  2246      1
  2247  2242  2247      1
  2248  2243  2248      1
  2249  2248  2249      1
  2250  2248  2251      1
  2251  2248  2252      1
  2252  2249  2250      1
  2253  2249  2253      1
  2254  2249  2254      1
  2255  2250  2255      1
  2256  2255  2256      1
  2257  2255  2258      1
  2258  2255  2259      1
  2259  2256  2257      1
  2260  2256  2260      1
  2261  2256  2261      1
  2262  2257  2262      1
  2263  2262  2263      1
  2264  2262  2265      1
  2265  2262  2266      1
  2266  2263  2264      1
  2267  2263  2267      1
  2268  2263  2268      1
  2269  2264  2269      1
  2270  2269  2270      1
  2271  2269  2272      1
  2272  2269  2273      1
  2273  2270  2271      1
  2274  2270  2274      1
  2275  2270  2275      1
  2276  2271  2276      1
  2277  2276  2277      1
  2278  2276  2279      1
  2279  2276  2280      1
  2280  2277  2278      1
  2281  2277  2281      1
  2282  2277  2282      1
  2283  2278  2283      1
  2284  2283  2284      1
  2285  2283  2286      1
  2286  2283  2287      1
  2287  2284  2285      1
  2288  2284  2288      1
  2289  2284  2289      1
  2290  2285  2290      1
  2291  2290  2291      1
  2292  2290  2293      1
  2293  2290  2294      1
  2294  2291  2292      1
  2295  2291  2295      1
  2296  2291  2296      1
  2297  2292  2297      1
  2298  2297  2298      1
  2299  2297  2300      1
  2300  2297  2301      1
  2301  2298  2299      1
  2302  2298  2302      1
  2303  2298  2303      1
  2304  2299  2304      1
  2305  2304  2305      1
  2306  2304  2307      1
  2307  2304  2308      1
  2308  2305  2306      1
  2309  2305  2309      1
  2310  2305  2310      1
  2311  2306  2311      1
  2312  2311  2312      1
  2313  2311  2314      1
  2314  2311  2315      1
  2315  2312  2313      1
  2316  2312  2316      1
  2317  2312  2317      1
  2318  2313  2318      1
  2319  2318  2319      1
  2320  2318  2321      1
  2321  2318  2322      1
  2322  2319  2320      1
  2323  2319  2323      1
  2324  2319  2324      1
  2325  2320  2325      1
  2326  2325  2326      1
  2327  2325  2328      1
  2328  2325  2329      1
  2329  2326  2327      1
  2330  2326  2330      1
  2331  2326  2331      1
  2332  2327  2332      1
  2333  2332  2333      1
  2334  2332  2335      1
  2335  2332  2336      1
  2336  2333  2334      1
  2337  2333  2337      1
  2338  2333  2338      1
  2339  2334  2339      1
  2340  2339  2340      1
  2341  2339  2342      1
  2342  2339  2343      1
  2343  2340  2341      1
  2344  2340  2344      1
  2345  2340  2345      1
  2346  2341  2346      1
  2347  2346  2347      1
  2348  2346  2349      1
  2349  2346  2350      1
  2350  2347  2348      1
  2351  2347  2351      1
  2352  2347  2352      1
  2353  2348  2353      1
  2354  2353  2354      1
  2355  2353  2356      1
  2356  2353  2357      1
  2357  2354  2355      1
  2358  2354  2358      1
  2359  2354  2359      1
  2360  2355  2360      1
  2361  2360  2361      1
  2362  2360  2363      1
  2363  2360  2364      1
  2364  2361  2362      1
  2365  2361  2365      1
  2366  2361  2366      1
  2367  2362  2367      1
  2368  2367  2368      1
  2369  2367  2370      1
  2370  2367  2371      1
  2371  2368  2369      1
  2372  2368  2372      1
  2373  2368  2373      1
  2374  2369  2374      1
  2375  2374  2375      1
  2376  2374  2377      1
  2377  2374  2378      1
  2378  2375  2376      1
  2379  2375  2379      1
  2380  2375  2380      1
  2381  2376  2381      1
  2382  2381  2382      1
  2383  2381  2384      1
  2384  2381  2385      1
  2385  2382  2383      1
  2386  2382  2386      1
  2387  2382  2387      1
  2388  2383  2388      1
  2389  2388  2389      1
  2390  2388  2391      1
  2391  2388  2392      1
  2392  2389  2390      1
  2393  2389  2393      1
  2394  2389  2394      1
  2395  2390  2395      1
  2396  2395  2396      1
  2397  2395  2398      1
  2398  2395  2399      1
  2399  2396  2397      1
  2400  2396  2400      1
  2401  2396  2401      1
  2402  2397  2402      1
  2403  2402  2403      1
  2404  2402  2405      1
  2405  2402  2406      1
  2406  2403  2404      1
  2407  2403  2407      1
  2408  2403  2408      1
  2409  2404  2409      1
  2410  2409  2410      1
  2411  2409  2412      1
  2412  2409  2413      1
  2413  2410  2411      1
  2414  2410  2414      1
  2415  2410  2415      1
  2416  2411  2416      1
  2417  2416  2417      1
  2418  2416  2419      1
  2419  2416  2420      1
  2420  2417  2418      1
  2421  2417  2421      1
  2422  2417  2422      1
  2423  2418  2423      1
  2424  2423  2424      1
  2425  2423  2426      1
  2426  2423  2427      1
  2427  2424  2425      1
  2428  2424  2428      1
  2429  2424  2429      1
  2430  2425  2430      1
  2431  2430  2431      1
  2432  2430  2433      1
  2433  2430  2434      1
  2434  2431  2432      1
  2435  2431  2435      1
  2436  2431  2436      1
  2437  2432  2437      1
  2438  2437  2438      1
  2439  2437  2440      1
  2440  2437  2441      1
  2441  2438  2439      1
  2442  2438  2442      1
  2443  2438  2443      1
  2444  2439  2444      1
  2445  2444  2445      1
  2446  2444  2447      1
  2447  2444  2448      1
  2448  2445  2446      1
  2449  2445  2449      1
  2450  2445  2450      1
  2451  2446  2451      1
  2452  2451  2452      1
  2453  2451  2454      1
  2454  2451  2455      1
  2455  2452  2453      1
  2456  2452  2456      1
  2457  2452  2457      1
  2458  2453  2458      1
  2459  2458  2459      1
  2460  2458  2461      1
  2461  2458  2462      1
  2462  2459  2460      1
  2463  2459  2463      1
  2464  2459  2464      1
  2465  2460  2465      1
  2466  2465  2466      1
  2467  2465  2468      1
  2468  2465  2469      1
  2469  2466  2467      1
  2470  2466  2470      1
  2471  2466  2471      1
  2472  2467  2472      1
  2473  2472  2473      1
  2474  2472  2475      1
  2475  2472  2476      1
  2476  2473  2474      1
  2477  2473  2477      1
  2478  2473  2478      1
  2479  2474  2479      1
  2480  2479  2480      1
  2481  2479  2482      1
  2482  2479  2483      1
  2483  2480  2481      1
  2484  2480  2484      1
  2485  2480  2485      1
  2486  2481  2486      1
  2487  2486  2487      1
  2488  2486  2489      1
  2489  2486  2490      1
  2490  2487  2488      1
  2491  2487  2491      1
  2492  2487  2492      1
  2493  2488  2493      1
  2494  2493  2494      1
  2495  2493  2496      1
  2496  2493  2497      1
  2497  2494  2495      1
  2498  2494  2498      1
  2499  2494  2499      1
  2500  2495  2500      1
  2501  2500  2501      1
  2502  2500  2503      1
  2503  2500  2504      1
  2504  2501  2502      1
  2505  2501  2505      1
  2506  2501  2506      1
  2507  2502  2507      1
  2508  2507  2508      1
  2509  2507  2510      1
  2510  2507  2511      1
  2511  2508  2509      1
  2512  2508  2512      1
  2513  2508  2513      1
  2514  2509  2514      1
  2515  2514  2515      1
  2516  2514  2517      1
  2517  2514  2518      1
  2518  2515  2516      1
  2519  2515  2519      1
  2520  2515  2520      1
  2521  2516  2521      1
  2522  2521  2522      1
  2523  2521  2524      1
  2524  2521  2525      1
  2525  2522  2523      1
  2526  2522  2526      1
  2527  2522  2527      1
  2528  2523  2528      1
  2529  2528  2529      1
  2530  2528  2531      1
  2531  2528  2532      1
  2532  2529  2530      1
  2533  2529  2533      1
  2534  2529  2534      1
  2535  2530  2535      1
  2536  2535  2536      1
  2537  2535  2538      1
  2538  2535  2539      1
  2539  2536  2537      1
  2540  2536  2540      1
  2541  2536  2541      1
  2542  2537  2542      1
  2543  2542  2543      1
  2544  2542  2545      1
  2545  2542  2546      1
  2546  2543  2544      1
  2547  2543  2547      1
  2548  2543  2548      1
  2549  2544  2549      1
  2550  2549  2550      1
  2551  2549  2552      1
  2552  2549  2553      1
  2553  2550  2551      1
  2554  2550  2554      1
  2555  2550  2555      1
  2556  2551  2556      1
  2557  2556  2557      1
  2558  2556  2559      1
  2559  2556  2560      1
  2560  2557  2558      1
  2561  2557  2561      1
  2562  2557  2562      1
  2563  2558  2563      1
  2564  2563  2564      1
  2565  2563  2566      1
  2566  2563  2567      1
  2567  2564  2565      1
  2568  2564  2568      1
  2569  2564  2569      1
  2570  2565  2570      1
  2571  2570  2571      1
  2572  2570  2573      1
  2573  2570  2574      1
  2574  2571  2572      1
  2575  2571  2575      1
  2576  2571  2576      1
  2577  2572  2577      1
  2578  2577  2578      1
  2579  2577  2580      1
  2580  2577  2581      1
  2581  2578  2579      1
  2582  2578  2582      1
  2583  2578  2583      1
  2584  2579  2584      1
  2585  2584  2585      1
  2586  2584  2587      1
  2587  2584  2588      1
  2588  2585  2586      1
  2589  2585  2589      1
  2590  2585  2590      1
  2591  2586  2591      1
  2592  2591  2592      1
  2593  2591  2594      1
  2594  2591  2595      1
  2595  2592  2593      1
  2596  2592  2596      1
  2597  2592  2597      1
  2598  2593  2598      1
  2599  2598  2599      1
  2600  2598  2601      1
  2601  2598  2602      1
  2602  2599  2600      1
  2603  2599  2603      1
  2604  2599  2604      1
  2605  2600  2605      1
  2606  2605  2606      1
  2607  2605  2608      1
  2608  2605  2609      1
  2609  2606  2607      1
  2610  2606  2610      1
  2611  2606  2611      1
  2612  2607  2612      1
  2613  2612  2613      1
  2614  2612  2615      1
  2615  2612  2616      1
  2616  2613  2614      1
  2617  2613  2617      1
  2618  2613  2618      1
  2619  2614  2619      1
  2620  2619  2620      1
  2621  2619  2622      1
  2622  2619  2623      1
  2623  2620  2621      1
  2624  2620  2624      1
  2625  2620  2625      1
  2626  2621  2626      1
  2627  2626  2627      1
  2628  2626  2629      1
  2629  2626  2630      1
  2630  2627  2628      1
  2631  2627  2631      1
  2632  2627  2632      1
  2633  2628  2633      1
  2634  2633  2634      1
  2635  2633  2636      1
  2636  2633  2637      1
  2637  2634  2635      1
  2638  2634  2638      1
  2639  2634  2639      1
  2640  2635  2640      1
  2641  2640  2641      1
  2642  2640  2643      1
  2643  2640  2644      1
  2644  2641  2642      1
  2645  2641  2645      1
  2646  2641  2646      1
  2647  2642  2647      1
  2648  2647  2648      1
  2649  2647  2650      1
  2650  2647  2651      1
  2651  2648  2649      1
  2652  2648  2652      1
  2653  2648  2653      1
  2654  2649  2654      1
  2655  2654  2655      1
  2656  2654  2657      1
  2657  2654  2658      1
  2658  2655  2656      1
  2659  2655  2659      1
  2660  2655  2660      1
  2661  2656  2661      1
  2662  2661  2662      1
  2663  2661  2664      1
  2664  2661  2665      1
  2665  2662  2663      1
  2666  2662  2666      1
  2667  2662  2667      1
  2668  2663  2668      1
  2669  2668  2669      1
  2670  2668  2671      1
  2671  2668  2672      1
  2672  2669  2670      1
  2673  2669  2673      1
  2674  2669  2674      1
  2675  2670  2675      1
  2676  2675  2676      1
  2677  2675  2678      1
  2678  2675  2679      1
  2679  2676  2677      1
  2680  2676  2680      1
  2681  2676  2681      1
  2682  2677  2682      1
  2683  2682  2683      1
  2684  2682  2685      1
  2685  2682  2686      1
  2686  2683  2684      1
  2687  2683  2687      1
  2688  2683  2688      1
  2689  2684  2689      1
  2690  2689  2690      1
  2691  2689  2692      1
  2692  2689  2693      1
  2693  2690  2691      1
  2694  2690  2694      1
  2695  2690  2695      1
  2696  2691  2696      1
  2697  2696  2697      1
  2698  2696  2699      1
  2699  2696  2700      1
  2700  2697  2698      1
  2701  2697  2701      1
  2702  2697  2702      1
  2703  2698  2703      1
  2704  2703  2704      1
  2705  2703  2706      1
  2706  2703  2707      1
  2707  2704  2705      1
  2708  2704  2708      1
  2709  2704  2709      1
  2710  2705  2710      1
  2711  2710  2711      1
  2712  2710  2713      1
  2713  2710  2714      1
  2714  2711  2712      1
  2715  2711  2715      1
  2716  2711  2716      1
  2717  2712  2717      1
  2718  2717  2718      1
  2719  2717  2720      1
  2720  2717  2721      1
  2721  2718  2719      1
  2722  2718  2722      1
  2723  2718  2723      1
  2724  2719  2724      1
  2725  2724  2725      1
  2726  2724  2727      1
  2727  2724  2728      1
  2728  2725  2726      1
  2729  2725  2729      1
  2730  2725  2730      1
  2731  2726  2731      1
  2732  2731  2732      1
  2733  2731  2734      1
  2734  2731  2735      1
  2735  2732  2733      1
  2736  2732  2736      1
  2737  2732  2737      1
  2738  2733  2738      1
  2739  2738  2739      1
  2740  2738  2741      1
  2741  2738  2742      1
  2742  2739  2740      1
  2743  2739  2743      1
  2744  2739  2744      1
  2745  2740  2745      1
  2746  2745  2746      1
  2747  2745  2748      1
  2748  2745  2749      1
  2749  2746  2747      1
  2750  2746  2750      1
  2751  2746  2751      1
  2752  2747  2752      1
  2753  2752  2753      1
  2754  2752  2755      1
  2755  2752  2756      1
  2756  2753  2754      1
  2757  2753  2757      1
  2758  2753  2758      1
  2759  2754  2759      1
  2760  2759  2760      1
  2761  2759  2762      1
  2762  2759  2763      1
  2763  2760  2761      1
  2764  2760  2764      1
  2765  2760  2765      1
  2766  2761  2766      1
  2767  2766  2767      1
  2768  2766  2769      1
  2769  2766  2770      1
  2770  2767  2768      1
  2771  2767  2771      1
  2772  2767  2772      1
  2773  2768  2773      1
  2774  2773  2774      1
  2775  2773  2776      1
  2776  2773  2777      1
  2777  2774  2775      1
  2778  2774  2778      1
  2779  2774  2779      1
  2780  2775  2780      1
  2781  2780  2781      1
  2782  2780  2783      1
  2783  2780  2784      1
  2784  2781  2782      1
  2785  2781  2785      1
  2786  2781  2786      1
  2787  2782  2787      1
  2788  2787  2788      1
  2789  2787  2790      1
  2790  2787  2791      1
  2791  2788  2789      1
  2792  2788  2792      1
  2793  2788  2793      1
  2794  2789  2794      1
  2795  2794  2795      1
  2796  2794  2797      1
  2797  2794  2798      1
  2798  2795  2796      1
  2799  2795  2799      1
  2800  2795  2800      1
  2801  2796  2801      1
  2802  2801  2802      1
  2803  2801  2804      1
  2804  2801  2805      1
  2805  2802  2803      1
  2806  2802  2806      1
  2807  2802  2807      1
  2808  2803  2808      1
  2809  2808  2809      1
  2810  2808  2811      1
  2811  2808  2812      1
  2812  2809  2810      1
  2813  2809  2813      1
  2814  2809  2814      1
  2815  2810  2815      1
  2816  2815  2816      1
  2817  2815  2818      1
  2818  2815  2819      1
  2819  2816  2817      1
  2820  2816  2820      1
  2821  2816  2821      1
  2822  2817  2822      1
  2823  2822  2823      1
  2824  2822  2825      1
  2825  2822  2826      1
  2826  2823  2824      1
  2827  2823  2827      1
  2828  2823  2828      1
  2829  2824  2829      1
  2830  2829  2830      1
  2831  2829  2832      1
  2832  2829  2833      1
  2833  2830  2831      1
  2834  2830  2834      1
  2835  2830  2835      1
  2836  2831  2836      1
  2837  2836  2837      1
  2838  2836  2839      1
  2839  2836  2840      1
  2840  2837  2838      1
  2841  2837  2841      1
  2842  2837  2842      1
  2843  2838  2843      1
  2844  2843  2844      1
  2845  2843  2846      1
  2846  2843  2847      1
  2847  2844  2845      1
  2848  2844  2848      1
  2849  2844  2849      1
  2850  2845  2850      1
  2851  2850  2851      1
  2852  2850  2853      1
  2853  2850  2854      1
  2854  2851  2852      1
  2855  2851  2855      1
  2856  2851  2856      1
  2857  2852  2857      1
  2858  2857  2858      1
  2859  2857  2860      1
  2860  2857  2861      1
  2861  2858  2859      1
  2862  2858  2862      1
  2863  2858  2863      1
  2864  2859  2864      1
  2865  2864  2865      1
  2866  2864  2867      1
  2867  2864  2868      1
  2868  2865  2866      1
  2869  2865  2869      1
  2870  2865  2870      1
  2871  2866  2871      1
  2872  2871  2872      1
  2873  2871  2874      1
  2874  2871  2875      1
  2875  2872  2873      1
  2876  2872  2876      1
  2877  2872  2877      1
  2878  2873  2878      1
  2879  2878  2879      1
  2880  2878  2881      1
  2881  2878  2882      1
  2882  2879  2880      1
  2883  2879  2883      1
  2884  2879  2884      1
  2885  2880  2885      1
  2886  2885  2886      1
  2887  2885  2888      1
  2888  2885  2889      1
  2889  2886  2887      1
  2890  2886  2890      1
  2891  2886  2891      1
  2892  2887  2892      1
  2893  2892  2893      1
  2894  2892  2895      1
  2895  2892  2896      1
  2896  2893  2894      1
  2897  2893  2897      1
  2898  2893  2898      1
  2899  2894  2899      1
  2900  2899  2900      1
  2901  2899  2902      1
  2902  2899  2903      1
  2903  2900  2901      1
  2904  2900  2904      1
  2905  2900  2905      1
  2906  2901  2906      1
  2907  2906  2907      1
  2908  2906  2909      1
  2909  2906  2910      1
  2910  2907  2908      1
  2911  2907  2911      1
  2912  2907  2912      1
  2913  2908  2913      1
  2914  2913  2914      1
  2915  2913  2916      1
  2916  2913  2917      1
  2917  2914  2915      1
  2918  2914  2918      1
  2919  2914  2919      1
  2920  2915  2920      1
  2921  2920  2921      1
  2922  2920  2923      1
  2923  2920  2924      1
  2924  2921  2922      1
  2925  2921  2925      1
  2926  2921  2926      1
  2927  2922  2927      1
  2928  2927  2928      1
  2929  2927  2930      1
  2930  2927  2931      1
  2931  2928  2929      1
  2932  2928  2932      1
  2933  2928  2933      1
  2934  2929  2934      1
  2935  2934  2935      1
  2936  2934  2937      1
  2937  2934  2938      1
  2938  2935  2936      1
  2939  2935  2939      1
  2940  2935  2940      1
  2941  2936  2941      1
  2942  2941  2942      1
  2943  2941  2944      1
  2944  2941  2945      1
  2945  2942  2943      1
  2946  2942  2946      1
  2947  2942  2947      1
  2948  2943  2948      1
  2949  2948  2949      1
  2950  2948  2951      1
  2951  2948  2952      1
  2952  2949  2950      1
  2953  2949  2953      1
  2954  2949  2954      1
  2955  2950  2955      1
  2956  2955  2956      1
  2957  2955  2958      1
  2958  2955  2959      1
  2959  2956  2957      1
  2960  2956  2960      1
  2961  2956  2961      1
  2962  2957  2962      1
  2963  2962  2963      1
  2964  2962  2965      1
  2965  2962  2966      1
  2966  2963  2964      1
  2967  2963  2967      1
  2968  2963  2968      1
  2969  2964  2969      1
  2970  2969  2970      1
  2971  2969  2972      1
  2972  2969  2973      1
  2973  2970  2971      1
  2974  2970  2974      1
  2975  2970  2975      1
  2976  2971  2976      1
  2977  2976  2977      1
  2978  2976  2979      1
  2979  2976  2980      1
  2980  2977  2978      1
  2981  2977  2981      1
  2982  2977  2982      1
  2983  2978  2983      1
  2984  2983  2984      1
  2985  2983  2986      1
  2986  2983  2987      1
  2987  2984  2985      1
  2988  2984  2988      1
  2989  2984  2989      1
  2990  2985  2990      1
  2991  2990  2991      1
  2992  2990  2993      1
  2993  2990  2994      1
  2994  2991  2992      1
  2995  2991  2995      1
  2996  2991  2996      1
  2997  2992  2997      1
  2998  2997  2998      1
  2999  2997  3000      1
  3000  2997  3001      1
  3001  2998  2999      1
  3002  2998  3002      1
  3003  2998  3003      1
  3004  2999  3004      1
  3005  3004  3005      1
  3006  3004  3007      1
  3007  3004  3008      1
  3008  3005  3006      1
  3009  3005  3009      1
  3010  3005  3010      1
  3011  3006  3011      1
  3012  3011  3012      1
  3013  3011  3014      1
  3014  3011  3015      1
  3015  3012  3013      1
  3016  3012  3016      1
  3017  3012  3017      1
  3018  3013  3018      1
  3019  3018  3019      1
  3020  3018  3021      1
  3021  3018  3022      1
  3022  3019  3020      1
  3023  3019  3023      1
  3024  3019  3024      1
  3025  3020  3025      1
  3026  3025  3026      1
  3027  3025  3028      1
  3028  3025  3029      1
  3029  3026  3027      1
  3030  3026  3030      1
  3031  3026  3031      1
  3032  3027  3032      1
  3033  3032  3033      1
  3034  3032  3035      1
  3035  3032  3036      1
  3036  3033  3034      1
  3037  3033  3037      1
  3038  3033  3038      1
  3039  3034  3039      1
  3040  3039  3040      1
  3041  3039  3042      1
  3042  3039  3043      1
  3043  3040  3041      1
  3044  3040  3044      1
  3045  3040  3045      1
  3046  3041  3046      1
  3047  3046  3047      1
  3048  3046  3049      1
  3049  3046  3050      1
  3050  3047  3048      1
  3051  3047  3051      1
  3052  3047  3052      1
  3053  3048  3053      1
  3054  3053  3054      1
  3055  3053  3056      1
  3056  3053  3057      1
  3057  3054  3055      1
  3058  3054  3058      1
  3059  3054  3059      1
  3060  3055  3060      1
  3061  3060  3061      1
  3062  3060  3063      1
  3063  3060  3064      1
  3064  3061  3062      1
  3065  3061  3065      1
  3066  3061  3066      1
  3067  3062  3067      1
  3068  3067  3068      1
  3069  3067  3070      1
  3070  3067  3071      1
  3071  3068  3069      1
  3072  3068  3072      1
  3073  3068  3073      1
  3074  3069  3074      1
  3075  3074  3075      1
  3076  3074  3077      1
  3077  3074  3078      1
  3078  3075  3076      1
  3079  3075  3079      1
  3080  3075  3080      1
  3081  3076  3081      1
  3082  3081  3082      1
  3083  3081  3084      1
  3084  3081  3085      1
  3085  3082  3083      1
  3086  3082  3086      1
  3087  3082  3087      1
  3088  3083  3088      1
  3089  3088  3089      1
  3090  3088  3091      1
  3091  3088  3092      1
  3092  3089  3090      1
  3093  3089  3093      1
  3094  3089  3094      1
  3095  3090  3095      1
  3096  3095  3096      1
  3097  3095  3098      1
  3098  3095  3099      1
  3099  3096  3097      1
  3100  3096  3100      1
  3101  3096  3101      1
  3102  3097  3102      1
  3103  3102  3103      1
  3104  3102  3105      1
  3105  3102  3106      1
  3106  3103  3104      1
  3107  3103  3107      1
  3108  3103  3108      1
  3109  3104  3109      1
  3110  3109  3110      1
  3111  3109  3112      1
  3112  3109  3113      1
  3113  3110  3111      1
  3114  3110  3114      1
  3115  3110  3115      1
  3116  3111  3116      1
  3117  3116  3117      1
  3118  3116  3119      1
  3119  3116  3120      1
  3120  3117  3118      1
  3121  3117  3121      1
  3122  3117  3122      1
  3123  3118  3123      1
  3124  3123  3124      1
  3125  3123  3126      1
  3126  3123  3127      1
  3127  3124  3125      1
  3128  3124  3128      1
  3129  3124  3129      1
  3130  3125  3130      1
  3131  3130  3131      1
  3132  3130  3133      1
  3133  3130  3134      1
  3134  3131  3132      1
  3135  3131  3135      1
  3136  3131  3136      1
  3137  3132  3137      1
  3138  3137  3138      1
  3139  3137  3140      1
  3140  3137  3141      1
  3141  3138  3139      1
  3142  3138  3142      1
  3143  3138  3143      1
  3144  3139  3144      1
  3145  3144  3145      1
  3146  3144  3147      1
  3147  3144  3148      1
  3148  3145  3146      1
  3149  3145  3149      1
  3150  3145  3150      1
  3151  3146  3151      1
  3152  3151  3152      1
  3153  3151  3154      1
  3154  3151  3155      1
  3155  3152  3153      1
  3156  3152  3156      1
  3157  3152  3157      1
  3158  3153  3158      1
  3159  3158  3159      1
  3160  3158  3161      1
  3161  3158  3162      1
  3162  3159  3160      1
  3163  3159  3163      1
  3164  3159  3164      1
  3165  3160  3165      1
  3166  3165  3166      1
  3167  3165  3168      1
  3168  3165  3169      1
  3169  3166  3167      1
  3170  3166  3170      1
  3171  3166  3171      1
  3172  3167  3172      1
  3173  3172  3173      1
  3174  3172  3175      1
  3175  3172  3176      1
  3176  3173  3174      1
  3177  3173  3177      1
  3178  3173  3178      1
  3179  3174  3179      1
  3180  3179  3180      1
  3181  3179  3182      1
  3182  3179  3183      1
  3183  3180  3181      1
  3184  3180  3184      1
  3185  3180  3185      1
  3186  3181  3186      1
  3187  3186  3187      1
  3188  3186  3189      1
  3189  3186  3190      1
  3190  3187  3188      1
  3191  3187  3191      1
  3192  3187  3192      1
  3193  3188  3193      1
  3194  3193  3194      1
  3195  3193  3196      1
  3196  3193  3197      1
  3197  3194  3195      1
  3198  3194  3198      1
  3199  3194  3199      1
  3200  3195  3200      1
  3201  3200  3201      1
  3202  3200  3203      1
  3203  3200  3204      1
  3204  3201  3202      1
  3205  3201  3205      1
  3206  3201  3206      1
  3207  3202  3207      1
  3208  3207  3208      1
  3209  3207  3210      1
  3210  3207  3211      1
  3211  3208  3209      1
  3212  3208  3212      1
  3213  3208  3213      1
  3214  3209  3214      1
  3215  3214  3215      1
  3216  3214  3217      1
  3217  3214  3218      1
  3218  3215  3216      1
  3219  3215  3219      1
  3220  3215  3220      1
  3221  3216  3221      1
  3222  3221  3222      1
  3223  3221  3224      1
  3224  3221  3225      1
  3225  3222  3223      1
  3226  3222  3226      1
  3227  3222  3227      1
  3228  3223  3228      1
  3229  3228  3229      1
  3230  3228  3231      1
  3231  3228  3232      1
  3232  3229  3230      1
  3233  3229  3233      1
  3234  3229  3234      1
  3235  3230  3235      1
  3236  3235  3236      1
  3237  3235  3238      1
  3238  3235  3239      1
  3239  3236  3237      1
  3240  3236  3240      1
  3241  3236  3241      1
  3242  3237  3242      1
  3243  3242  3243      1
  3244  3242  3245      1
  3245  3242  3246      1
  3246  3243  3244      1
  3247  3243  3247      1
  3248  3243  3248      1
  3249  3244  3249      1
  3250  3249  3250      1
  3251  3249  3252      1
  3252  3249  3253      1
  3253  3250  3251      1
  3254  3250  3254      1
  3255  3250  3255      1
  3256  3251  3256      1
  3257  3256  3257      1
  3258  3256  3259      1
  3259  3256  3260      1
  3260  3257  3258      1
  3261  3257  3261      1
  3262  3257  3262      1
  3263  3258  3263      1
  3264  3263  3264      1
  3265  3263  3266      1
  3266  3263  3267      1
  3267  3264  3265      1
  3268  3264  3268      1
  3269  3264  3269      1
  3270  3265  3270      1
  3271  3270  3271      1
  3272  3270  3273      1
  3273  3270  3274      1
  3274  3271  3272      1
  3275  3271  3275      1
  3276  3271  3276      1
  3277  3272  3277      1
  3278  3277  3278      1
  3279  3277  3280      1
  3280  3277  3281      1
  3281  3278  3279      1
  3282  3278  3282      1
  3283  3278  3283      1
  3284  3279  3284      1
  3285  3284  3285      1
  3286  3284  3287      1
  3287  3284  3288      1
  3288  3285  3286      1
  3289  3285  3289      1
  3290  3285  3290      1
  3291  3286  3291      1
  3292  3291  3292      1
  3293  3291  3294      1
  3294  3291  3295      1
  3295  3292  3293      1
  3296  3292  3296      1
  3297  3292  3297      1
  3298  3293  3298      1
  3299  3298  3299      1
  3300  3298  3301      1
  3301  3298  3302      1
  3302  3299  3300      1
  3303  3299  3303      1
  3304  3299  3304      1
  3305  3300  3305      1
  3306  3305  3306      1
  3307  3305  3308      1
  3308  3305  3309      1
  3309  3306  3307      1
  3310  3306  3310      1
  3311  3306  3311      1
  3312  3307  3312      1
  3313  3312  3313      1
  3314  3312  3315      1
  3315  3312  3316      1
  3316  3313  3314      1
  3317  3313  3317      1
  3318  3313  3318      1
  3319  3314  3319      1
  3320  3319  3320      1
  3321  3319  3322      1
  3322  3319  3323      1
  3323  3320  3321      1
  3324  3320  3324      1
  3325  3320  3325      1
  3326  3321  3326      1
  3327  3326  3327      1
  3328  3326  3329      1
  3329  3326  3330      1
  3330  3327  3328      1
  3331  3327  3331      1
  3332  3327  3332      1
  3333  3328  3333      1
  3334  3333  3334      1
  3335  3333  3336      1
  3336  3333  3337      1
  3337  3334  3335      1
  3338  3334  3338      1
  3339  3334  3339      1
  3340  3335  3340      1
  3341  3340  3341      1
  3342  3340  3343      1
  3343  3340  3344      1
  3344  3341  3342      1
  3345  3341  3345      1
  3346  3341  3346      1
  3347  3342  3347      1
  3348  3347  3348      1
  3349  3347  3350      1
  3350  3347  3351      1
  3351  3348  3349      1
  3352  3348  3352      1
  3353  3348  3353      1
  3354  3349  3354      1
  3355  3354  3355      1
  3356  3354  3357      1
  3357  3354  3358      1
  3358  3355  3356      1
  3359  3355  3359      1
  3360  3355  3360      1
  3361  3356  3361      1
  3362  3361  3362      1
  3363  3361  3364      1
  3364  3361  3365      1
  3365  3362  3363      1
  3366  3362  3366      1
  3367  3362  3367      1
  3368  3363  3368      1
  3369  3368  3369      1
  3370  3368  3371      1
  3371  3368  3372      1
  3372  3369  3370      1
  3373  3369  3373      1
  3374  3369  3374      1
  3375  3370  3375      1
  3376  3375  3376      1
  3377  3375  3378      1
  3378  3375  3379      1
  3379  3376  3377      1
  3380  3376  3380      1
  3381  3376  3381      1
  3382  3377  3382      1
  3383  3382  3383      1
  3384  3382  3385      1
  3385  3382  3386      1
  3386  3383  3384      1
  3387  3383  3387      1
  3388  3383  3388      1
  3389  3384  3389      1
  3390  3389  3390      1
  3391  3389  3392      1
  3392  3389  3393      1
  3393  3390  3391      1
  3394  3390  3394      1
  3395  3390  3395      1
  3396  3391  3396      1
  3397  3396  3397      1
  3398  3396  3399      1
  3399  3396  3400      1
  3400  3397  3398      1
  3401  3397  3401      1
  3402  3397  3402      1
  3403  3398  3403      1
  3404  3403  3404      1
  3405  3403  3406      1
  3406  3403  3407      1
  3407  3404  3405      1
  3408  3404  3408      1
  3409  3404  3409      1
  3410  3405  3410      1
  3411  3410  3411      1
  3412  3410  3413      1
  3413  3410  3414      1
  3414  3411  3412      1
  3415  3411  3415      1
  3416  3411  3416      1
  3417  3412  3417      1
  3418  3417  3418      1
  3419  3417  3420      1
  3420  3417  3421      1
  3421  3418  3419      1
  3422  3418  3422      1
  3423  3418  3423      1
  3424  3419  3424      1
  3425  3424  3425      1
  3426  3424  3427      1
  3427  3424  3428      1
  3428  3425  3426      1
  3429  3425  3429      1
  3430  3425  3430      1
  3431  3426  3431      1
  3432  3431  3432      1
  3433  3431  3434      1
  3434  3431  3435      1
  3435  3432  3433      1
  3436  3432  3436      1
  3437  3432  3437      1
  3438  3433  3438      1
  3439  3438  3439      1
  3440  3438  3441      1
  3441  3438  3442      1
  3442  3439  3440      1
  3443  3439  3443      1
  3444  3439  3444      1
  3445  3440  3445      1
  3446  3445  3446      1
  3447  3445  3448      1
  3448  3445  3449      1
  3449  3446  3447      1
  3450  3446  3450      1
  3451  3446  3451      1
  3452  3447  3452      1
  3453  3452  3453      1
  3454  3452  3455      1
  3455  3452  3456      1
  3456  3453  3454      1
  3457  3453  3457      1
  3458  3453  3458      1
  3459  3454  3459      1
  3460  3459  3460      1
  3461  3459  3462      1
  3462  3459  3463      1
  3463  3460  3461      1
  3464  3460  3464      1
  3465  3460  3465      1
  3466  3461  3466      1
  3467  3466  3467      1
  3468  3466  3469      1
  3469  3466  3470      1
  3470  3467  3468      1
  3471  3467  3471      1
  3472  3467  3472      1
  3473  3468  3473      1
  3474  3473  3474      1
  3475  3473  3476      1
  3476  3473  3477      1
  3477  3474  3475      1
  3478  3474  3478      1
  3479  3474  3479      1
  3480  3475  3480      1
  3481  3480  3481      1
  3482  3480  3483      1
  3483  3480  3484      1
  3484  3481  3482      1
  3485  3481  3485      1
  3486  3481  3486      1
  3487  3482  3487      1
  3488  3487  3488      1
  3489  3487  3490      1
  3490  3487  3491      1
  3491  3488  3489      1
  3492  3488  3492      1
  3493  3488  3493      1
  3494  3489  3494      1
  3495  3494  3495      1
  3496  3494  3497      1
  3497  3494  3498      1
  3498  3495  3496      1
  3499  3495  3499      1
  3500  3495  3500      1
  3501  3496  3501      1
  3502  3501  3502      1
  3503  3501  3504      1
  3504  3501  3505      1
  3505  3502  3503      1
  3506  3502  3506      1
  3507  3502  3507      1
  3508  3503  3508      1
  3509  3508  3509      1
  3510  3508  3511      1
  3511  3508  3512      1
  3512  3509  3510      1
  3513  3509  3513      1
  3514  3509  3514      1
  3515  3510  3515      1
  3516  3515  3516      1
  3517  3515  3518      1
  3518  3515  3519      1
  3519  3516  3517      1
  3520  3516  3520      1
  3521  3516  3521      1
  3522  3517  3522      1
  3523  3522  3523      1
  3524  3522  3525      1
  3525  3522  3526      1
  3526  3523  3524      1
  3527  3523  3527      1
  3528  3523  3528      1
  3529  3524  3529      1
  3530  3529  3530      1
  3531  3529  3532      1
  3532  3529  3533      1
  3533  3530  3531      1
  3534  3530  3534      1
  3535  3530  3535      1
  3536  3531  3536      1
  3537  3536  3537      1
  3538  3536  3539      1
  3539  3536  3540      1
  3540  3537  3538      1
  3541  3537  3541      1
  3542  3537  3542      1
  3543  3538  3543      1
  3544  3543  3544      1
  3545  3543  3546      1
  3546  3543  3547      1
  3547  3544  3545      1
  3548  3544  3548      1
  3549  3544  3549      1
  3550  3545  3550      1
  3551  3550  3551      1
  3552  3550  3553      1
  3553  3550  3554      1
  3554  3551  3552      1
  3555  3551  3555      1
  3556  3551  3556      1
  3557  3552  3557      1
  3558  3557  3558      1
  3559  3557  3560      1
  3560  3557  3561      1
  3561  3558  3559      1
  3562  3558  3562      1
  3563  3558  3563      1
  3564  3559  3564      1
  3565  3564  3565      1
  3566  3564  3567      1
  3567  3564  3568      1
  3568  3565  3566      1
  3569  3565  3569      1
  3570  3565  3570      1
  3571  3566  3571      1
  3572  3571  3572      1
  3573  3571  3574      1
  3574  3571  3575      1
  3575  3572  3573      1
  3576  3572  3576      1
  3577  3572  3577      1
  3578  3573  3578      1
  3579  3578  3579      1
  3580  3578  3581      1
  3581  3578  3582      1
  3582  3579  3580      1
  3583  3579  3583      1
  3584  3579  3584      1
  3585  3580  3585      1
  3586  3585  3586      1
  3587  3585  3588      1
  3588  3585  3589      1
  3589  3586  3587      1
  3590  3586  3590      1
  3591  3586  3591      1
  3592  3587  3592      1
  3593  3592  3593      1
  3594  3592  3595      1
  3595  3592  3596      1
  3596  3593  3594      1
  3597  3593  3597      1
  3598  3593  3598      1
  3599  3594  3599      1
  3600  3599  3600      1
  3601  3599  3602      1
  3602  3599  3603      1
  3603  3600  3601      1
  3604  3600  3604      1
  3605  3600  3605      1
  3606  3601  3606      1
  3607  3606  3607      1
  3608  3606  3609      1
  3609  3606  3610      1
  3610  3607  3608      1
  3611  3607  3611      1
  3612  3607  3612      1
  3613  3608  3613      1
  3614  3613  3614      1
  3615  3613  3616      1
  3616  3613  3617      1
  3617  3614  3615      1
  3618  3614  3618      1
  3619  3614  3619      1
  3620  3615  3620      1
  3621  3620  3621      1
  3622  3620  3623      1
  3623  3620  3624      1
  3624  3621  3622      1
  3625  3621  3625      1
  3626  3621  3626      1
  3627  3622  3627      1
  3628  3627  3628      1
  3629  3627  3630      1
  3630  3627  3631      1
  3631  3628  3629      1
  3632  3628  3632      1
  3633  3628  3633      1
  3634  3629  3634      1
  3635  3634  3635      1
  3636  3634  3637      1
  3637  3634  3638      1
  3638  3635  3636      1
  3639  3635  3639      1
  3640  3635  3640      1
  3641  3636  3641      1
  3642  3641  3642      1
  3643  3641  3644      1
  3644  3641  3645      1
  3645  3642  3643      1
  3646  3642  3646      1
  3647  3642  3647      1
  3648  3643  3648      1
  3649  3648  3649      1
  3650  3648  3651      1
  3651  3648  3652      1
  3652  3649  3650      1
  3653  3649  3653      1
  3654  3649  3654      1
  3655  3650  3655      1
  3656  3655  3656      1
  3657  3655  3658      1
  3658  3655  3659      1
  3659  3656  3657      1
  3660  3656  3660      1
  3661  3656  3661      1
  3662  3657  3662      1
  3663  3662  3663      1
  3664  3662  3665      1
  3665  3662  3666      1
  3666  3663  3664      1
  3667  3663  3667      1
  3668  3663  3668      1
  3669  3664  3669      1
  3670  3669  3670      1
  3671  3669  3672      1
  3672  3669  3673      1
  3673  3670  3671      1
  3674  3670  3674      1
  3675  3670  3675      1
  3676  3671  3676      1
  3677  3676  3677      1
  3678  3676  3679      1
  3679  3676  3680      1
  3680  3677  3678      1
  3681  3677  3681      1
  3682  3677  3682      1
  3683  3678  3683      1
  3684  3683  3684      1
  3685  3683  3686      1
  3686  3683  3687      1
  3687  3684  3685      1
  3688  3684  3688      1
  3689  3684  3689      1
  3690  3685  3690      1
  3691  3690  3691      1
  3692  3690  3693      1
  3693  3690  3694      1
  3694  3691  3692      1
  3695  3691  3695      1
  3696  3691  3696      1
  3697  3692  3697      1
  3698  3697  3698      1
  3699  3697  3700      1
  3700  3697  3701      1
  3701  3698  3699      1
  3702  3698  3702      1
  3703  3698  3703      1
  3704  3699  3704      1
  3705  3704  3705      1
  3706  3704  3707      1
  3707  3704  3708      1
  3708  3705  3706      1
  3709  3705  3709      1
  3710  3705  3710      1
  3711  3706  3711      1
  3712  3711  3712      1
  3713  3711  3714      1
  3714  3711  3715      1
  3715  3712  3713      1
  3716  3712  3716      1
  3717  3712  3717      1
  3718  3713  3718      1
  3719  3718  3719      1
  3720  3718  3721      1
  3721  3718  3722      1
  3722  3719  3720      1
  3723  3719  3723      1
  3724  3719  3724      1
  3725  3720  3725      1
  3726  3725  3726      1
  3727  3725  3728      1
  3728  3725  3729      1
  3729  3726  3727      1
  3730  3726  3730      1
  3731  3726  3731      1
  3732  3727  3732      1
  3733  3732  3733      1
  3734  3732  3735      1
  3735  3732  3736      1
  3736  3733  3734      1
  3737  3733  3737      1
  3738  3733  3738      1
  3739  3734  3739      1
  3740  3739  3740      1
  3741  3739  3742      1
  3742  3739  3743      1
  3743  3740  3741      1
  3744  3740  3744      1
  3745  3740  3745      1
  3746  3741  3746      1
  3747  3746  3747      1
  3748  3746  3749      1
  3749  3746  3750      1
  3750  3747  3748      1
  3751  3747  3751      1
  3752  3747  3752      1
  3753  3748  3753      1
  3754  3753  3754      1
  3755  3753  3756      1
  3756  3753  3757      1
  3757  3754  3755      1
  3758  3754  3758      1
  3759  3754  3759      1
  3760  3755  3760      1
  3761  3760  3761      1
  3762  3760  3763      1
  3763  3760  3764      1
  3764  3761  3762      1
  3765  3761  3765      1
  3766  3761  3766      1
  3767  3762  3767      1
  3768  3767  3768      1
  3769  3767  3770      1
  3770  3767  3771      1
  3771  3768  3769      1
  3772  3768  3772      1
  3773  3768  3773      1
  3774  3769  3774      1
  3775  3774  3775      1
  3776  3774  3777      1
  3777  3774  3778      1
  3778  3775  3776      1
  3779  3775  3779      1
  3780  3775  3780      1
  3781  3776  3781      1
  3782  3781  3782      1
  3783  3781  3784      1
  3784  3781  3785      1
  3785  3782  3783      1
  3786  3782  3786      1
  3787  3782  3787      1
  3788  3783  3788      1
  3789  3788  3789      1
  3790  3788  3791      1
  3791  3788  3792      1
  3792  3789  3790      1
  3793  3789  3793      1
  3794  3789  3794      1
  3795  3790  3795      1
  3796  3795  3796      1
  3797  3795  3798      1
  3798  3795  3799      1
  3799  3796  3797      1
  3800  3796  3800      1
  3801  3796  3801      1
  3802  3797  3802      1
  3803  3802  3803      1
  3804  3802  3805      1
  3805  3802  3806      1
  3806  3803  3804      1
  3807  3803  3807      1
  3808  3803  3808      1
  3809  3804  3809      1
  3810  3809  3810      1
  3811  3809  3812      1
  3812  3809  3813      1
  3813  3810  3811      1
  3814  3810  3814      1
  3815  3810  3815      1
  3816  3811  3816      1
  3817  3816  3817      1
  3818  3816  3819      1
  3819  3816  3820      1
  3820  3817  3818      1
  3821  3817  3821      1
  3822  3817  3822      1
  3823  3818  3823      1
  3824  3823  3824      1
  3825  3823  3826      1
  3826  3823  3827      1
  3827  3824  3825      1
  3828  3824  3828      1
  3829  3824  3829      1
  3830  3825  3830      1
  3831  3830  3831      1
  3832  3830  3833      1
  3833  3830  3834      1
  3834  3831  3832      1
  3835  3831  3835      1
  3836  3831  3836      1
  3837  3832  3837      1
  3838  3837  3838      1
  3839  3837  3840      1
  3840  3837  3841      1
  3841  3838  3839      1
  3842  3838  3842      1
  3843  3838  3843      1
  3844  3839  3844      1
  3845  3844  3845      1
  3846  3844  3847      1
  3847  3844  3848      1
  3848  3845  3846      1
  3849  3845  3849      1
  3850  3845  3850      1
  3851  3846  3851      1
  3852  3851  3852      1
  3853  3851  3854      1
  3854  3851  3855      1
  3855  3852  3853      1
  3856  3852  3856      1
  3857  3852  3857      1
  3858  3853  3858      1
  3859  3858  3859      1
  3860  3858  3861      1
  3861  3858  3862      1
  3862  3859  3860      1
  3863  3859  3863      1
  3864  3859  3864      1
  3865  3860  3865      1
  3866  3865  3866      1
  3867  3865  3868      1
  3868  3865  3869      1
  3869  3866  3867      1
  3870  3866  3870      1
  3871  3866  3871      1
  3872  3867  3872      1
  3873  3872  3873      1
  3874  3872  3875      1
  3875  3872  3876      1
  3876  3873  3874      1
  3877  3873  3877      1
  3878  3873  3878      1
  3879  3874  3879      1
  3880  3879  3880      1
  3881  3879  3882      1
  3882  3879  3883      1
  3883  3880  3881      1
  3884  3880  3884      1
  3885  3880  3885      1
  3886  3881  3886      1
  3887  3886  3887      1
  3888  3886  3889      1
  3889  3886  3890      1
  3890  3887  3888      1
  3891  3887  3891      1
  3892  3887  3892      1
  3893  3888  3893      1
  3894  3893  3894      1
  3895  3893  3896      1
  3896  3893  3897      1
  3897  3894  3895      1
  3898  3894  3898      1
  3899  3894  3899      1
  3900  3895  3900      1
  3901  3900  3901      1
  3902  3900  3903      1
  3903  3900  3904      1
  3904  3901  3902      1
  3905  3901  3905      1
  3906  3901  3906      1
  3907  3902  3907      1
  3908  3907  3908      1
  3909  3907  3910      1
  3910  3907  3911      1
  3911  3908  3909      1
  3912  3908  3912      1
  3913  3908  3913      1
  3914  3909  3914      1
  3915  3914  3915      1
  3916  3914  3917      1
  3917  3914  3918      1
  3918  3915  3916      1
  3919  3915  3919      1
  3920  3915  3920      1
  3921  3916  3921      1
  3922  3921  3922      1
  3923  3921  3924      1
  3924  3921  3925      1
  3925  3922  3923      1
  3926  3922  3926      1
  3927  3922  3927      1
  3928  3923  3928      1
  3929  3928  3929      1
  3930  3928  3931      1
  3931  3928  3932      1
  3932  3929  3930      1
  3933  3929  3933      1
  3934  3929  3934      1
  3935  3930  3935      1
  3936  3935  3936      1
  3937  3935  3938      1
  3938  3935  3939      1
  3939  3936  3937      1
  3940  3936  3940      1
  3941  3936  3941      1
  3942  3937  3942      1
  3943  3942  3943      1
  3944  3942  3945      1
  3945  3942  3946      1
  3946  3943  3944      1
  3947  3943  3947      1
  3948  3943  3948      1
  3949  3944  3949      1
  3950  3949  3950      1
  3951  3949  3952      1
  3952  3949  3953      1
  3953  3950  3951      1
  3954  3950  3954      1
  3955  3950  3955      1
  3956  3951  3956      1
  3957  3956  3957      1
  3958  3956  3959      1
  3959  3956  3960      1
  3960  3957  3958      1
  3961  3957  3961      1
  3962  3957  3962      1
  3963  3958  3963      1
  3964  3963  3964      1
  3965  3963  3966      1
  3966  3963  3967      1
  3967  3964  3965      1
  3968  3964  3968      1
  3969  3964  3969      1
  3970  3965  3970      1
  3971  3970  3971      1
  3972  3970  3973      1
  3973  3970  3974      1
  3974  3971  3972      1
  3975  3971  3975      1
  3976  3971  3976      1
  3977  3972  3977      1
  3978  3977  3978      1
  3979  3977  3980      1
  3980  3977  3981      1
  3981  3978  3979      1
  3982  3978  3982      1
  3983  3978  3983      1
  3984  3979  3984      1
  3985  3984  3985      1
  3986  3984  3987      1
  3987  3984  3988      1
  3988  3985  3986      1
  3989  3985  3989      1
  3990  3985  3990      1
  3991  3986  3991      1
  3992  3991  3992      1
  3993  3991  3994      1
  3994  3991  3995      1
  3995  3992  3993      1
  3996  3992  3996      1
  3997  3992  3997      1
  3998  3993  3998      1
  3999  3998  3999      1
  4000  3998  4001      1
  4001  3998  4002      1
  4002  3999  4000      1
  4003  3999  4003      1
  4004  3999  4004      1
  4005  4000  4005      1
  4006  4005  4006      1
  4007  4005  4008      1
  4008  4005  4009      1
  4009  4006  4007      1
  4010  4006  4010      1
  4011  4006  4011      1
  4012  4007  4012      1
  4013  4012  4013      1
  4014  4012  4015      1
  4015  4012  4016      1
  4016  4013  4014      1
  4017  4013  4017      1
  4018  4013  4018      1
  4019  4014  4019      1
  4020  4019  4020      1
  4021  4019  4022      1
  4022  4019  4023      1
  4023  4020  4021      1
  4024  4020  4024      1
  4025  4020  4025      1
  4026  4021  4026      1
  4027  4026  4027      1
  4028  4026  4029      1
  4029  4026  4030      1
  4030  4027  4028      1
  4031  4027  4031      1
  4032  4027  4032      1
  4033  4028  4033      1
  4034  4033  4034      1
  4035  4033  4036      1
  4036  4033  4037      1
  4037  4034  4035      1
  4038  4034  4038      1
  4039  4034  4039      1
  4040  4035  4040      1
  4041  4040  4041      1
  4042  4040  4043      1
  4043  4040  4044      1
  4044  4041  4042      1
  4045  4041  4045      1
  4046  4041  4046      1
  4047  4042  4047      1
  4048  4047  4048      1
  4049  4047  4050      1
  4050  4047  4051      1
  4051  4048  4049      1
  4052  4048  4052      1
  4053  4048  4053      1
  4054  4049  4054      1
  4055  4054  4055      1
  4056  4054  4057      1
  4057  4054  4058      1
  4058  4055  4056      1
  4059  4055  4059      1
  4060  4055  4060      1
  4061  4056  4061      1
  4062  4061  4062      1
  4063  4061  4064      1
  4064  4061  4065      1
  4065  4062  4063      1
  4066  4062  4066      1
  4067  4062  4067      1
  4068  4063  4068      1
  4069  4068  4069      1
  4070  4068  4071      1
  4071  4068  4072      1
  4072  4069  4070      1
  4073  4069  4073      1
  4074  4069  4074      1
  4075  4070  4075      1
  4076  4075  4076      1
  4077  4075  4078      1
  4078  4075  4079      1
  4079  4076  4077      1
  4080  4076  4080      1
  4081  4076  4081      1
  4082  4077  4082      1
  4083  4082  4083      1
  4084  4082  4085      1
  4085  4082  4086      1
  4086  4083  4084      1
  4087  4083  4087      1
  4088  4083  4088      1
  4089  4084  4089      1
  4090  4089  4090      1
  4091  4089  4092      1
  4092  4089  4093      1
  4093  4090  4091      1
  4094  4090  4094      1
  4095  4090  4095      1
  4096  4091  4096      1
  4097  4096  4097      1
  4098  4096  4099      1
  4099  4096  4100      1
  4100  4097  4098      1
  4101  4097  4101      1
  4102  4097  4102      1
  4103  4098  4103      1
  4104  4103  4104      1
  4105  4103  4106      1
  4106  4103  4107      1
  4107  4104  4105      1
  4108  4104  4108      1
  4109  4104  4109      1
  4110  4105  4110      1
  4111  4110  4111      1
  4112  4110  4113      1
  4113  4110  4114      1
  4114  4111  4112      1
  4115  4111  4115      1
  4116  4111  4116      1
  4117  4112  4117      1
  4118  4117  4118      1
  4119  4117  4120      1
  4120  4117  4121      1
  4121  4118  4119      1
  4122  4118  4122      1
  4123  4118  4123      1
  4124  4119  4124      1
  4125  4124  4125      1
  4126  4124  4127      1
  4127  4124  4128      1
  4128  4125  4126      1
  4129  4125  4129      1
  4130  4125  4130      1
  4131  4126  4131      1
  4132  4131  4132      1
  4133  4131  4134      1
  4134  4131  4135      1
  4135  4132  4133      1
  4136  4132  4136      1
  4137  4132  4137      1
  4138  4133  4138      1
  4139  4138  4139      1
  4140  4138  4141      1
  4141  4138  4142      1
  4142  4139  4140      1
  4143  4139  4143      1
  4144  4139  4144      1
  4145  4140  4145      1
  4146  4145  4146      1
  4147  4145  4148      1
  4148  4145  4149      1
  4149  4146  4147      1
  4150  4146  4150      1
  4151  4146  4151      1
  4152  4147  4152      1
  4153  4152  4153      1
  4154  4152  4155      1
  4155  4152  4156      1
  4156  4153  4154      1
  4157  4153  4157      1
  4158  4153  4158      1
  4159  4154  4159      1
  4160  4159  4160      1
  4161  4159  4162      1
  4162  4159  4163      1
  4163  4160  4161      1
  4164  4160  4164      1
  4165  4160  4165      1
  4166  4161  4166      1
  4167  4166  4167      1
  4168  4166  4169      1
  4169  4166  4170      1
  4170  4167  4168      1
  4171  4167  4171      1
  4172  4167  4172      1
  4173  4168  4173      1
  4174  4173  4174      1
  4175  4173  4176      1
  4176  4173  4177      1
  4177  4174  4175      1
  4178  4174  4178      1
  4179  4174  4179      1
  4180  4175  4180      1
  4181  4180  4181      1
  4182  4180  4183      1
  4183  4180  4184      1
  4184  4181  4182      1
  4185  4181  4185      1
  4186  4181  4186      1
  4187  4182  4187      1
  4188  4187  4188      1
  4189  4187  4190      1
  4190  4187  4191      1
  4191  4188  4189      1
  4192  4188  4192      1
  4193  4188  4193      1
  4194  4189  4194      1
  4195  4194  4195      1
  4196  4194  4197      1
  4197  4194  4198      1
  4198  4195  4196      1
  4199  4195  4199      1
  4200  4195  4200      1
  4201  4196  4201      1
  4202  4201  4202      1
  4203  4201  4204      1
  4204  4201  4205      1
  4205  4202  4203      1
  4206  4202  4206      1
  4207  4202  4207      1
  4208  4203  4208      1
  4209  4208  4209      1
  4210  4208  4211      1
  4211  4208  4212      1
  4212  4209  4210      1
  4213  4209  4213      1
  4214  4209  4214      1
  4215  4210  4215      1
  4216  4215  4216      1
  4217  4215  4218      1
  4218  4215  4219      1
  4219  4216  4217      1
  4220  4216  4220      1
  4221  4216  4221      1
  4222  4217  4222      1
  4223  4222  4223      1
  4224  4222  4225      1
  4225  4222  4226      1
  4226  4223  4224      1
  4227  4223  4227      1
  4228  4223  4228      1
  4229  4224  4229      1
  4230  4229  4230      1
  4231  4229  4232      1
  4232  4229  4233      1
  4233  4230  4231      1
  4234  4230  4234      1
  4235  4230  4235      1
  4236  4231  4236      1
  4237  4236  4237      1
  4238  4236  4239      1
  4239  4236  4240      1
  4240  4237  4238      1
  4241  4237  4241      1
  4242  4237  4242      1
  4243  4238  4243      1
  4244  4243  4244      1
  4245  4243  4246      1
  4246  4243  4247      1
  4247  4244  4245      1
  4248  4244  4248      1
  4249  4244  4249      1
  4250  4245  4250      1
  4251  4250  4251      1
  4252  4250  4253      1
  4253  4250  4254      1
  4254  4251  4252      1
  4255  4251  4255      1
  4256  4251  4256      1
  4257  4252  4257      1
  4258  4257  4258      1
  4259  4257  4260      1
  4260  4257  4261      1
  4261  4258  4259      1
  4262  4258  4262      1
  4263  4258  4263      1
  4264  4259  4264      1
  4265  4264  4265      1
  4266  4264  4267      1
  4267  4264  4268      1
  4268  4265  4266      1
  4269  4265  4269      1
  4270  4265  4270      1
  4271  4266  4271      1
  4272  4271  4272      1
  4273  4271  4274      1
  4274  4271  4275      1
  4275  4272  4273      1
  4276  4272  4276      1
  4277  4272  4277      1
  4278  4273  4278      1
  4279  4278  4279      1
  4280  4278  4281      1
  4281  4278  4282      1
  4282  4279  4280      1
  4283  4279  4283      1
  4284  4279  4284      1
  4285  4280  4285      1
  4286  4285  4286      1
  4287  4285  4288      1
  4288  4285  4289      1
  4289  4286  4287      1
  4290  4286  4290      1
  4291  4286  4291      1
  4292  4287  4292      1
  4293  4292  4293      1
  4294  4292  4295      1
  4295  4292  4296      1
  4296  4293  4294      1
  4297  4293  4297      1
  4298  4293  4298      1
  4299  4294  4299      1
  4300  4299  4300      1
  4301  4299  4302      1
  4302  4299  4303      1
  4303  4300  4301      1
  4304  4300  4304      1
  4305  4300  4305      1
  4306  4301  4306      1
  4307  4306  4307      1
  4308  4306  4309      1
  4309  4306  4310      1
  4310  4307  4308      1
  4311  4307  4311      1
  4312  4307  4312      1
  4313  4308  4313      1
  4314  4313  4314      1
  4315  4313  4316      1
  4316  4313  4317      1
  4317  4314  4315      1
  4318  4314  4318      1
  4319  4314  4319      1
  4320  4315  4320      1
  4321  4320  4321      1
  4322  4320  4323      1
  4323  4320  4324      1
  4324  4321  4322      1
  4325  4321  4325      1
  4326  4321  4326      1
  4327  4322  4327      1
  4328  4327  4328      1
  4329  4327  4330      1
  4330  4327  4331      1
  4331  4328  4329      1
  4332  4328  4332      1
  4333  4328  4333      1
  4334  4329  4334      1
  4335  4334  4335      1
  4336  4334  4337      1
  4337  4334  4338      1
  4338  4335  4336      1
  4339  4335  4339      1
  4340  4335  4340      1
  4341  4336  4341      1
  4342  4341  4342      1
  4343  4341  4344      1
  4344  4341  4345      1
  4345  4342  4343      1
  4346  4342  4346      1
  4347  4342  4347      1
  4348  4343  4348      1
  4349  4348  4349      1
  4350  4348  4351      1
  4351  4348  4352      1
  4352  4349  4350      1
  4353  4349  4353      1
  4354  4349  4354      1
  4355  4350  4355      1
  4356  4355  4356      1
  4357  4355  4358      1
  4358  4355  4359      1
  4359  4356  4357      1
  4360  4356  4360      1
  4361  4356  4361      1
  4362  4357  4362      1
  4363  4362  4363      1
  4364  4362  4365      1
  4365  4362  4366      1
  4366  4363  4364      1
  4367  4363  4367      1
  4368  4363  4368      1
  4369  4364  4369      1
  4370  4369  4370      1
  4371  4369  4372      1
  4372  4369  4373      1
  4373  4370  4371      1
  4374  4370  4374      1
  4375  4370  4375      1
  4376  4371  4376      1
  4377  4376  4377      1
  4378  4376  4379      1
  4379  4376  4380      1
  4380  4377  4378      1
  4381  4377  4381      1
  4382  4377  4382      1
  4383  4378  4383      1
  4384  4383  4384      1
  4385  4383  4386      1
  4386  4383  4387      1
  4387  4384  4385      1
  4388  4384  4388      1
  4389  4384  4389      1
  4390  4385  4390      1
  4391  4390  4391      1
  4392  4390  4393      1
  4393  4390  4394      1
  4394  4391  4392      1
  4395  4391  4395      1
  4396  4391  4396      1
  4397  4392  4397      1
  4398  4397  4398      1
  4399  4397  4400      1
  4400  4397  4401      1
  4401  4398  4399      1
  4402  4398  4402      1
  4403  4398  4403      1
  4404  4399  4404      1
  4405  4404  4405      1
  4406  4404  4407      1
  4407  4404  4408      1
  4408  4405  4406      1
  4409  4405  4409      1
  4410  4405  4410      1
  4411  4406  4411      1
  4412  4411  4412      1
  4413  4411  4414      1
  4414  4411  4415      1
  4415  4412  4413      1
  4416  4412  4416      1
  4417  4412  4417      1
  4418  4413  4418      1
  4419  4418  4419      1
  4420  4418  4421      1
  4421  4418  4422      1
  4422  4419  4420      1
  4423  4419  4423      1
  4424  4419  4424      1
  4425  4420  4425      1
  4426  4425  4426      1
  4427  4425  4428      1
  4428  4425  4429      1
  4429  4426  4427      1
  4430  4426  4430      1
  4431  4426  4431      1
  4432  4427  4432      1
  4433  4432  4433      1
  4434  4432  4435      1
  4435  4432  4436      1
  4436  4433  4434      1
  4437  4433  4437      1
  4438  4433  4438      1
  4439  4434  4439      1
  4440  4439  4440      1
  4441  4439  4442      1
  4442  4439  4443      1
  4443  4440  4441      1
  4444  4440  4444      1
  4445  4440  4445      1
  4446  4441  4446      1
  4447  4446  4447      1
  4448  4446  4449      1
  4449  4446  4450      1
  4450  4447  4448      1
  4451  4447  4451      1
  4452  4447  4452      1
  4453  4448  4453      1
  4454  4453  4454      1
  4455  4453  4456      1
  4456  4453  4457      1
  4457  4454  4455      1
  4458  4454  4458      1
  4459  4454  4459      1
  4460  4455  4460      1
  4461  4460  4461      1
  4462  4460  4463      1
  4463  4460  4464      1
  4464  4461  4462      1
  4465  4461  4465      1
  4466  4461  4466      1
  4467  4462  4467      1
  4468  4467  4468      1
  4469  4467  4470      1
  4470  4467  4471      1
  4471  4468  4469      1
  4472  4468  4472      1
  4473  4468  4473      1
  4474  4469  4474      1
  4475  4474  4475      1
  4476  4474  4477      1
  4477  4474  4478      1
  4478  4475  4476      1
  4479  4475  4479      1
  4480  4475  4480      1
  4481  4476  4481      1
  4482  4481  4482      1
  4483  4481  4484      1
  4484  4481  4485      1
  4485  4482  4483      1
  4486  4482  4486      1
  4487  4482  4487      1
  4488  4483  4488      1
  4489  4488  4489      1
  4490  4488  4491      1
  4491  4488  4492      1
  4492  4489  4490      1
  4493  4489  4493      1
  4494  4489  4494      1
  4495  4490  4495      1
  4496  4495  4496      1
  4497  4495  4498      1
  4498  4495  4499      1
  4499  4496  4497      1
  4500  4496  4500      1
  4501  4496  4501      1
  4502  4497  4502      1
  4503  4502  4503      1
  4504  4502  4505      1
  4505  4502  4506      1
  4506  4503  4504      1
  4507  4503  4507      1
  4508  4503  4508      1
  4509  4504  4509      1
  4510  4509  4510      1
  4511  4509  4512      1
  4512  4509  4513      1
  4513  4510  4511      1
  4514  4510  4514      1
  4515  4510  4515      1
  4516  4511  4516      1
  4517  4516  4517      1
  4518  4516  4519      1
  4519  4516  4520      1
  4520  4517  4518      1
  4521  4517  4521      1
  4522  4517  4522      1
  4523  4518  4523      1
  4524  4523  4524      1
  4525  4523  4526      1
  4526  4523  4527      1
  4527  4524  4525      1
  4528  4524  4528      1
  4529  4524  4529      1
  4530  4525  4530      1
  4531  4530  4531      1
  4532  4530  4533      1
  4533  4530  4534      1
  4534  4531  4532      1
  4535  4531  4535      1
  4536  4531  4536      1
  4537  4532  4537      1
  4538  4537  4538      1
  4539  4537  4540      1
  4540  4537  4541      1
  4541  4538  4539      1
  4542  4538  4542      1
  4543  4538  4543      1
  4544  4539  4544      1
  4545  4544  4545      1
  4546  4544  4547      1
  4547  4544  4548      1
  4548  4545  4546      1
  4549  4545  4549      1
  4550  4545  4550      1
  4551  4546  4551      1
  4552  4551  4552      1
  4553  4551  4554      1
  4554  4551  4555      1
  4555  4552  4553      1
  4556  4552  4556      1
  4557  4552  4557      1
  4558  4553  4558      1
  4559  4558  4559      1
  4560  4558  4561      1
  4561  4558  4562      1
  4562  4559  4560      1
  4563  4559  4563      1
  4564  4559  4564      1
  4565  4560  4565      1
  4566  4565  4566      1
  4567  4565  4568      1
  4568  4565  4569      1
  4569  4566  4567      1
  4570  4566  4570      1
  4571  4566  4571      1
  4572  4567  4572      1
  4573  4572  4573      1
  4574  4572  4575      1
  4575  4572  4576      1
  4576  4573  4574      1
  4577  4573  4577      1
  4578  4573  4578      1
  4579  4574  4579      1
  4580  4579  4580      1
  4581  4579  4582      1
  4582  4579  4583      1
  4583  4580  4581      1
  4584  4580  4584      1
  4585  4580  4585      1
  4586  4581  4586      1
  4587  4586  4587      1
  4588  4586  4589      1
  4589  4586  4590      1
  4590  4587  4588      1
  4591  4587  4591      1
  4592  4587  4592      1
  4593  4588  4593      1
  4594  4593  4594      1
  4595  4593  4596      1
  4596  4593  4597      1
  4597  4594  4595      1
  4598  4594  4598      1
  4599  4594  4599      1
  4600  4595  4600      1
  4601  4600  4601      1
  4602  4600  4603      1
  4603  4600  4604      1
  4604  4601  4602      1
  4605  4601  4605      1
  4606  4601  4606      1
  4607  4602  4607      1
  4608  4607  4608      1
  4609  4607  4610      1
  4610  4607  4611      1
  4611  4608  4609      1
  4612  4608  4612      1
  4613  4608  4613      1
  4614  4609  4614      1
  4615  4614  4615      1
  4616  4614  4617      1
  4617  4614  4618      1
  4618  4615  4616      1
  4619  4615  4619      1
  4620  4615  4620      1
  4621  4616  4621      1
  4622  4621  4622      1
  4623  4621  4624      1
  4624  4621  4625      1
  4625  4622  4623      1
  4626  4622  4626      1
  4627  4622  4627      1
  4628  4623  4628      1
  4629  4628  4629      1
  4630  4628  4631      1
  4631  4628  4632      1
  4632  4629  4630      1
  4633  4629  4633      1
  4634  4629  4634      1
  4635  4630  4635      1
  4636  4635  4636      1
  4637  4635  4638      1
  4638  4635  4639      1
  4639  4636  4637      1
  4640  4636  4640      1
  4641  4636  4641      1
  4642  4637  4642      1
  4643  4642  4643      1
  4644  4642  4645      1
  4645  4642  4646      1
  4646  4643  4644      1
  4647  4643  4647      1
  4648  4643  4648      1
  4649  4644  4649      1
  4650  4649  4650      1
  4651  4649  4652      1
  4652  4649  4653      1
  4653  4650  4651      1
  4654  4650  4654      1
  4655  4650  4655      1
  4656  4651  4656      1
  4657  4656  4657      1
  4658  4656  4659      1
  4659  4656  4660      1
  4660  4657  4658      1
  4661  4657  4661      1
  4662  4657  4662      1
  4663  4658  4663      1
  4664  4663  4664      1
  4665  4663  4666      1
  4666  4663  4667      1
  4667  4664  4665      1
  4668  4664  4668      1
  4669  4664  4669      1
  4670  4665  4670      1
  4671  4670  4671      1
  4672  4670  4673      1
  4673  4670  4674      1
  4674  4671  4672      1
  4675  4671  4675      1
  4676  4671  4676      1
  4677  4672  4677      1
  4678  4677  4678      1
  4679  4677  4680      1
  4680  4677  4681      1
  4681  4678  4679      1
  4682  4678  4682      1
  4683  4678  4683      1
  4684  4679  4684      1
  4685  4684  4685      1
  4686  4684  4687      1
  4687  4684  4688      1
  4688  4685  4686      1
  4689  4685  4689      1
  4690  4685  4690      1
  4691  4686  4691      1
  4692  4691  4692      1
  4693  4691  4694      1
  4694  4691  4695      1
  4695  4692  4693      1
  4696  4692  4696      1
  4697  4692  4697      1
  4698  4693  4698      1
  4699  4698  4699      1
  4700  4698  4701      1
  4701  4698  4702      1
  4702  4699  4700      1
  4703  4699  4703      1
  4704  4699  4704      1
  4705  4700  4705      1
  4706  4705  4706      1
  4707  4705  4708      1
  4708  4705  4709      1
  4709  4706  4707      1
  4710  4706  4710      1
  4711  4706  4711      1
  4712  4707  4712      1
  4713  4712  4713      1
  4714  4712  4715      1
  4715  4712  4716      1
  4716  4713  4714      1
  4717  4713  4717      1
  4718  4713  4718      1
  4719  4714  4719      1
  4720  4719  4720      1
  4721  4719  4722      1
  4722  4719  4723      1
  4723  4720  4721      1
  4724  4720  4724      1
  4725  4720  4725      1
  4726  4721  4726      1
  4727  4726  4727      1
  4728  4726  4729      1
  4729  4726  4730      1
  4730  4727  4728      1
  4731  4727  4731      1
  4732  4727  4732      1
  4733  4728  4733      1
  4734  4733  4734      1
  4735  4733  4736      1
  4736  4733  4737      1
  4737  4734  4735      1
  4738  4734  4738      1
  4739  4734  4739      1
  4740  4735  4740      1
  4741  4740  4741      1
  4742  4740  4743      1
  4743  4740  4744      1
  4744  4741  4742      1
  4745  4741  4745      1
  4746  4741  4746      1
  4747  4742  4747      1
  4748  4747  4748      1
  4749  4747  4750      1
  4750  4747  4751      1
  4751  4748  4749      1
  4752  4748  4752      1
  4753  4748  4753      1
  4754  4749  4754      1
  4755  4754  4755      1
  4756  4754  4757      1
  4757  4754  4758      1
  4758  4755  4756      1
  4759  4755  4759      1
  4760  4755  4760      1
  4761  4756  4761      1
  4762  4761  4762      1
  4763  4761  4764      1
  4764  4761  4765      1
  4765  4762  4763      1
  4766  4762  4766      1
  4767  4762  4767      1
  4768  4763  4768      1
  4769  4768  4769      1
  4770  4768  4771      1
  4771  4768  4772      1
  4772  4769  4770      1
  4773  4769  4773      1
  4774  4769  4774      1
  4775  4770  4775      1
  4776  4775  4776      1
  4777  4775  4778      1
  4778  4775  4779      1
  4779  4776  4777      1
  4780  4776  4780      1
  4781  4776  4781      1
  4782  4777  4782      1
  4783  4782  4783      1
  4784  4782  4785      1
  4785  4782  4786      1
  4786  4783  4784      1
  4787  4783  4787      1
  4788  4783  4788      1
  4789  4784  4789      1
  4790  4789  4790      1
  4791  4789  4792      1
  4792  4789  4793      1
  4793  4790  4791      1
  4794  4790  4794      1
  4795  4790  4795      1
  4796  4791  4796      1
  4797  4796  4797      1
  4798  4796  4799      1
  4799  4796  4800      1
  4800  4797  4798      1
  4801  4797  4801      1
  4802  4797  4802      1
  4803  4798  4803      1
  4804  4803  4804      1
  4805  4803  4806      1
  4806  4803  4807      1
  4807  4804  4805      1
  4808  4804  4808      1
  4809  4804  4809      1
  4810  4805  4810      1
  4811  4810  4811      1
  4812  4810  4813      1
  4813  4810  4814      1
  4814  4811  4812      1
  4815  4811  4815      1
  4816  4811  4816      1
  4817  4812  4817      1
  4818  4817  4818      1
  4819  4817  4820      1
  4820  4817  4821      1
  4821  4818  4819      1
  4822  4818  4822      1
  4823  4818  4823      1
  4824  4819  4824      1
  4825  4824  4825      1
  4826  4824  4827      1
  4827  4824  4828      1
  4828  4825  4826      1
  4829  4825  4829      1
  4830  4825  4830      1
  4831  4826  4831      1
  4832  4831  4832      1
  4833  4831  4834      1
  4834  4831  4835      1
  4835  4832  4833      1
  4836  4832  4836      1
  4837  4832  4837      1
  4838  4833  4838      1
  4839  4838  4839      1
  4840  4838  4841      1
  4841  4838  4842      1
  4842  4839  4840      1
  4843  4839  4843      1
  4844  4839  4844      1
  4845  4840  4845      1
  4846  4845  4846      1
  4847  4845  4848      1
  4848  4845  4849      1
  4849  4846  4847      1
  4850  4846  4850      1
  4851  4846  4851      1
  4852  4847  4852      1
  4853  4852  4853      1
  4854  4852  4855      1
  4855  4852  4856      1
  4856  4853  4854      1
  4857  4853  4857      1
  4858  4853  4858      1
  4859  4854  4859      1
  4860  4859  4860      1
  4861  4859  4862      1
  4862  4859  4863      1
  4863  4860  4861      1
  4864  4860  4864      1
  4865  4860  4865      1
  4866  4861  4866      1
  4867  4866  4867      1
  4868  4866  4869      1
  4869  4866  4870      1
  4870  4867  4868      1
  4871  4867  4871      1
  4872  4867  4872      1
  4873  4868  4873      1
  4874  4873  4874      1
  4875  4873  4876      1
  4876  4873  4877      1
  4877  4874  4875      1
  4878  4874  4878      1
  4879  4874  4879      1
  4880  4875  4880      1
  4881  4880  4881      1
  4882  4880  4883      1
  4883  4880  4884      1
  4884  4881  4882      1
  4885  4881  4885      1
  4886  4881  4886      1
  4887  4882  4887      1
  4888  4887  4888      1
  4889  4887  4890      1
  4890  4887  4891      1
  4891  4888  4889      1
  4892  4888  4892      1
  4893  4888  4893      1
  4894  4889  4894      1
  4895  4894  4895      1
  4896  4894  4897      1
  4897  4894  4898      1
  4898  4895  4896      1
  4899  4895  4899      1
  4900  4895  4900      1
  4901  4896  4901      1
  4902  4901  4902      1
  4903  4901  4904      1
  4904  4901  4905      1
  4905  4902  4903      1
  4906  4902  4906      1
  4907  4902  4907      1
  4908  4903  4908      1
  4909  4908  4909      1
  4910  4908  4911      1
  4911  4908  4912      1
  4912  4909  4910      1
  4913  4909  4913      1
  4914  4909  4914      1
  4915  4910  4915      1
  4916  4915  4916      1
  4917  4915  4918      1
  4918  4915  4919      1
  4919  4916  4917      1
  4920  4916  4920      1
  4921  4916  4921      1
  4922  4917  4922      1
  4923  4922  4923      1
  4924  4922  4925      1
  4925  4922  4926      1
  4926  4923  4924      1
  4927  4923  4927      1
  4928  4923  4928      1
  4929  4924  4929      1
  4930  4929  4930      1
  4931  4929  4932      1
  4932  4929  4933      1
  4933  4930  4931      1
  4934  4930  4934      1
  4935  4930  4935      1
  4936  4931  4936      1
  4937  4936  4937      1
  4938  4936  4939      1
  4939  4936  4940      1
  4940  4937  4938      1
  4941  4937  4941      1
  4942  4937  4942      1
  4943  4938  4943      1
  4944  4943  4944      1
  4945  4943  4946      1
  4946  4943  4947      1
  4947  4944  4945      1
  4948  4944  4948      1
  4949  4944  4949      1
  4950  4945  4950      1
  4951  4950  4951      1
  4952  4950  4953      1
  4953  4950  4954      1
  4954  4951  4952      1
  4955  4951  4955      1
  4956  4951  4956      1
  4957  4952  4957      1
  4958  4957  4958      1
  4959  4957  4960      1
  4960  4957  4961      1
  4961  4958  4959      1
  4962  4958  4962      1
  4963  4958  4963      1
  4964  4959  4964      1
  4965  4964  4965      1
  4966  4964  4967      1
  4967  4964  4968      1
  4968  4965  4966      1
  4969  4965  4969      1
  4970  4965  4970      1
  4971  4966  4971      1
  4972  4971  4972      1
  4973  4971  4974      1
  4974  4971  4975      1
  4975  4972  4973      1
  4976  4972  4976      1
  4977  4972  4977      1
  4978  4973  4978      1
  4979  4978  4979      1
  4980  4978  4981      1
  4981  4978  4982      1
  4982  4979  4980      1
  4983  4979  4983      1
  4984  4979  4984      1
  4985  4980  4985      1
  4986  4985  4986      1
  4987  4985  4988      1
  4988  4985  4989      1
  4989  4986  4987      1
  4990  4986  4990      1
  4991  4986  4991      1
  4992  4987  4992      1
  4993  4992  4993      1
  4994  4992  4995      1
  4995  4992  4996      1
  4996  4993  4994      1
  4997  4993  4997      1
  4998  4993  4998      1
  4999  4994  4999      1
  5000  4999  5000      1
  5001  4999  5002      1
  5002  4999  5003      1
  5003  5000  5001      1
  5004  5000  5004      1
  5005  5000  5005      1
  5006  5001  5006      1
  5007  5006  5007      1
  5008  5006  5009      1
  5009  5006  5010      1
  5010  5007  5008      1
  5011  5007  5011      1
  5012  5007  5012      1
  5013  5008  5013      1
  5014  5013  5014      1
  5015  5013  5016      1
  5016  5013  5017      1
  5017  5014  5015      1
  5018  5014  5018      1
  5019  5014  5019      1
  5020  5015  5020      1
  5021  5020  5021      1
  5022  5020  5023      1
  5023  5020  5024      1
  5024  5021  5022      1
  5025  5021  5025      1
  5026  5021  5026      1
  5027  5022  5027      1
  5028  5027  5028      1
  5029  5027  5030      1
  5030  5027  5031      1
  5031  5028  5029      1
  5032  5028  5032      1
  5033  5028  5033      1
  5034  5029  5034      1
  5035  5034  5035      1
  5036  5034  5037      1
  5037  5034  5038      1
  5038  5035  5036      1
  5039  5035  5039      1
  5040  5035  5040      1
  5041  5036  5041      1
  5042  5041  5042      1
  5043  5041  5044      1
  5044  5041  5045      1
  5045  5042  5043      1
  5046  5042  5046      1
  5047  5042  5047      1
  5048  5043  5048      1
  5049  5048  5049      1
  5050  5048  5051      1
  5051  5048  5052      1
  5052  5049  5050      1
  5053  5049  5053      1
  5054  5049  5054      1
  5055  5050  5055      1
  5056  5055  5056      1
  5057  5055  5058      1
  5058  5055  5059      1
  5059  5056  5057      1
  5060  5056  5060      1
  5061  5056  5061      1
  5062  5057  5062      1
  5063  5062  5063      1
  5064  5062  5065      1
  5065  5062  5066      1
  5066  5063  5064      1
  5067  5063  5067      1
  5068  5063  5068      1
  5069  5064  5069      1
  5070  5069  5070      1
  5071  5069  5072      1
  5072  5069  5073      1
  5073  5070  5071      1
  5074  5070  5074      1
  5075  5070  5075      1
  5076  5071  5076      1
  5077  5076  5077      1
  5078  5076  5079      1
  5079  5076  5080      1
  5080  5077  5078      1
  5081  5077  5081      1
  5082  5077  5082      1
  5083  5078  5083      1
  5084  5083  5084      1
  5085  5083  5086      1
  5086  5083  5087      1
  5087  5084  5085      1
  5088  5084  5088      1
  5089  5084  5089      1
  5090  5085  5090      1
  5091  5090  5091      1
  5092  5090  5093      1
  5093  5090  5094      1
  5094  5091  5092      1
  5095  5091  5095      1
  5096  5091  5096      1
  5097  5092  5097      1
  5098  5097  5098      1
  5099  5097  5100      1
  5100  5097  5101      1
  5101  5098  5099      1
  5102  5098  5102      1
  5103  5098  5103      1
  5104  5099  5104      1
  5105  5104  5105      1
  5106  5104  5107      1
  5107  5104  5108      1
  5108  5105  5106      1
  5109  5105  5109      1
  5110  5105  5110      1
  5111  5106  5111      1
  5112  5111  5112      1
  5113  5111  5114      1
  5114  5111  5115      1
  5115  5112  5113      1
  5116  5112  5116      1
  5117  5112  5117      1
  5118  5113  5118      1
  5119  5118  5119      1
  5120  5118  5121      1
  5121  5118  5122      1
  5122  5119  5120      1
  5123  5119  5123      1
  5124  5119  5124      1
  5125  5120  5125      1
  5126  5125  5126      1
  5127  5125  5128      1
  5128  5125  5129      1
  5129  5126  5127      1
  5130  5126  5130      1
  5131  5126  5131      1
  5132  5127  5132      1
  5133  5132  5133      1
  5134  5132  5135      1
  5135  5132  5136      1
  5136  5133  5134      1
  5137  5133  5137      1
  5138  5133  5138      1
  5139  5134  5139      1
  5140  5139  5140      1
  5141  5139  5142      1
  5142  5139  5143      1
  5143  5140  5141      1
  5144  5140  5144      1
  5145  5140  5145      1
  5146  5141  5146      1
  5147  5146  5147      1
  5148  5146  5149      1
  5149  5146  5150      1
  5150  5147  5148      1
  5151  5147  5151      1
  5152  5147  5152      1
  5153  5148  5153      1
  5154  5153  5154      1
  5155  5153  5156      1
  5156  5153  5157      1
  5157  5154  5155      1
  5158  5154  5158      1
  5159  5154  5159      1
  5160  5155  5160      1
  5161  5160  5161      1
  5162  5160  5163      1
  5163  5160  5164      1
  5164  5161  5162      1
  5165  5161  5165      1
  5166  5161  5166      1
  5167  5162  5167      1
  5168  5167  5168      1
  5169  5167  5170      1
  5170  5167  5171      1
  5171  5168  5169      1
  5172  5168  5172      1
  5173  5168  5173      1
  5174  5169  5174      1
  5175  5174  5175      1
  5176  5174  5177      1
  5177  5174  5178      1
  5178  5175  5176      1
  5179  5175  5179      1
  5180  5175  5180      1
  5181  5176  5181      1
  5182  5181  5182      1
  5183  5181  5184      1
  5184  5181  5185      1
  5185  5182  5183      1
  5186  5182  5186      1
  5187  5182  5187      1
  5188  5183  5188      1
  5189  5188  5189      1
  5190  5188  5191      1
  5191  5188  5192      1
  5192  5189  5190      1
  5193  5189  5193      1
  5194  5189  5194      1
  5195  5190  5195      1
  5196  5195  5196      1
  5197  5195  5198      1
  5198  5195  5199      1
  5199  5196  5197      1
  5200  5196  5200      1
  5201  5196  5201      1
  5202  5197  5202      1
  5203  5202  5203      1
  5204  5202  5205      1
  5205  5202  5206      1
  5206  5203  5204      1
  5207  5203  5207      1
  5208  5203  5208      1
  5209  5204  5209      1
  5210  5209  5210      1
  5211  5209  5212      1
  5212  5209  5213      1
  5213  5210  5211      1
  5214  5210  5214      1
  5215  5210  5215      1
  5216  5211  5216      1
  5217  5216  5217      1
  5218  5216  5219      1
  5219  5216  5220      1
  5220  5217  5218      1
  5221  5217  5221      1
  5222  5217  5222      1
  5223  5218  5223      1
  5224  5223  5224      1
  5225  5223  5226      1
  5226  5223  5227      1
  5227  5224  5225      1
  5228  5224  5228      1
  5229  5224  5229      1
  5230  5225  5230      1
  5231  5230  5231      1
  5232  5230  5233      1
  5233  5230  5234      1
  5234  5231  5232      1
  5235  5231  5235      1
  5236  5231  5236      1
  5237  5232  5237      1
  5238  5237  5238      1
  5239  5237  5240      1
  5240  5237  5241      1
  5241  5238  5239      1
  5242  5238  5242      1
  5243  5238  5243      1
  5244  5239  5244      1
  5245  5244  5245      1
  5246  5244  5247      1
  5247  5244  5248      1
  5248  5245  5246      1
  5249  5245  5249      1
  5250  5245  5250      1
  5251  5246  5251      1
  5252  5251  5252      1
  5253  5251  5254      1
  5254  5251  5255      1
  5255  5252  5253      1
  5256  5252  5256      1
  5257  5252  5257      1
  5258  5253  5258      1
  5259  5258  5259      1
  5260  5258  5261      1
  5261  5258  5262      1
  5262  5259  5260      1
  5263  5259  5263      1
  5264  5259  5264      1
  5265  5260  5265      1
  5266  5265  5266      1
  5267  5265  5268      1
  5268  5265  5269      1
  5269  5266  5267      1
  5270  5266  5270      1
  5271  5266  5271      1
  5272  5267  5272      1
  5273  5272  5273      1
  5274  5272  5275      1
  5275  5272  5276      1
  5276  5273  5274      1
  5277  5273  5277      1
  5278  5273  5278      1
  5279  5274  5279      1
  5280  5279  5280      1
  5281  5279  5282      1
  5282  5279  5283      1
  5283  5280  5281      1
  5284  5280  5284      1
  5285  5280  5285      1
  5286  5281  5286      1
  5287  5286  5287      1
  5288  5286  5289      1
  5289  5286  5290      1
  5290  5287  5288      1
  5291  5287  5291      1
  5292  5287  5292      1
  5293  5288  5293      1
  5294  5293  5294      1
  5295  5293  5296      1
  5296  5293  5297      1
  5297  5294  5295      1
  5298  5294  5298      1
  5299  5294  5299      1
  5300  5295  5300      1
  5301  5300  5301      1
  5302  5300  5303      1
  5303  5300  5304      1
  5304  5301  5302      1
  5305  5301  5305      1
  5306  5301  5306      1
  5307  5302  5307      1
  5308  5307  5308      1
  5309  5307  5310      1
  5310  5307  5311      1
  5311  5308  5309      1
  5312  5308  5312      1
  5313  5308  5313      1
  5314  5309  5314      1
  5315  5314  5315      1
  5316  5314  5317      1
  5317  5314  5318      1
  5318  5315  5316      1
  5319  5315  5319      1
  5320  5315  5320      1
  5321  5316  5321      1
  5322  5321  5322      1
  5323  5321  5324      1
  5324  5321  5325      1
  5325  5322  5323      1
  5326  5322  5326      1
  5327  5322  5327      1
  5328  5323  5328      1
  5329  5328  5329      1
  5330  5328  5331      1
  5331  5328  5332      1
  5332  5329  5330      1
  5333  5329  5333      1
  5334  5329  5334      1
  5335  5330  5335      1
  5336  5335  5336      1
  5337  5335  5338      1
  5338  5335  5339      1
  5339  5336  5337      1
  5340  5336  5340      1
  5341  5336  5341      1
  5342  5337  5342      1
  5343  5342  5343      1
  5344  5342  5345      1
  5345  5342  5346      1
  5346  5343  5344      1
  5347  5343  5347      1
  5348  5343  5348      1
  5349  5344  5349      1
  5350  5349  5350      1
  5351  5349  5352      1
  5352  5349  5353      1
  5353  5350  5351      1
  5354  5350  5354      1
  5355  5350  5355      1
  5356  5351  5356      1
  5357  5356  5357      1
  5358  5356  5359      1
  5359  5356  5360      1
  5360  5357  5358      1
  5361  5357  5361      1
  5362  5357  5362      1
  5363  5358  5363      1
  5364  5363  5364      1
  5365  5363  5366      1
  5366  5363  5367      1
  5367  5364  5365      1
  5368  5364  5368      1
  5369  5364  5369      1
  5370  5365  5370      1
  5371  5370  5371      1
  5372  5370  5373      1
  5373  5370  5374      1
  5374  5371  5372      1
  5375  5371  5375      1
  5376  5371  5376      1
  5377  5372  5377      1
  5378  5377  5378      1
  5379  5377  5380      1
  5380  5377  5381      1
  5381  5378  5379      1
  5382  5378  5382      1
  5383  5378  5383      1
  5384  5379  5384      1
  5385  5384  5385      1
  5386  5384  5387      1
  5387  5384  5388      1
  5388  5385  5386      1
  5389  5385  5389      1
  5390  5385  5390      1
  5391  5386  5391      1
  5392  5391  5392      1
  5393  5391  5394      1
  5394  5391  5395      1
  5395  5392  5393      1
  5396  5392  5396      1
  5397  5392  5397      1
  5398  5393  5398      1
  5399  5398  5399      1
  5400  5398  5401      1
  5401  5398  5402      1
  5402  5399  5400      1
  5403  5399  5403      1
  5404  5399  5404      1
  5405  5400  5405      1
  5406  5405  5406      1
  5407  5405  5408      1
  5408  5405  5409      1
  5409  5406  5407      1
  5410  5406  5410      1
  5411  5406  5411      1
  5412  5407  5412      1
  5413  5412  5413      1
  5414  5412  5415      1
  5415  5412  5416      1
  5416  5413  5414      1
  5417  5413  5417      1
  5418  5413  5418      1
  5419  5414  5419      1
  5420  5419  5420      1
  5421  5419  5422      1
  5422  5419  5423      1
  5423  5420  5421      1
  5424  5420  5424      1
  5425  5420  5425      1
  5426  5421  5426      1
  5427  5426  5427      1
  5428  5426  5429      1
  5429  5426  5430      1
  5430  5427  5428      1
  5431  5427  5431      1
  5432  5427  5432      1
  5433  5428  5433      1
  5434  5433  5434      1
  5435  5433  5436      1
  5436  5433  5437      1
  5437  5434  5435      1
  5438  5434  5438      1
  5439  5434  5439      1
  5440  5435  5440      1
  5441  5440  5441      1
  5442  5440  5443      1
  5443  5440  5444      1
  5444  5441  5442      1
  5445  5441  5445      1
  5446  5441  5446      1
  5447  5442  5447      1
  5448  5447  5448      1
  5449  5447  5450      1
  5450  5447  5451      1
  5451  5448  5449      1
  5452  5448  5452      1
  5453  5448  5453      1
  5454  5449  5454      1
  5455  5454  5455      1
  5456  5454  5457      1
  5457  5454  5458      1
  5458  5455  5456      1
  5459  5455  5459      1
  5460  5455  5460      1
  5461  5456  5461      1
  5462  5461  5462      1
  5463  5461  5464      1
  5464  5461  5465      1
  5465  5462  5463      1
  5466  5462  5466      1
  5467  5462  5467      1
  5468  5463  5468      1
  5469  5468  5469      1
  5470  5468  5471      1
  5471  5468  5472      1
  5472  5469  5470      1
  5473  5469  5473      1
  5474  5469  5474      1
  5475  5470  5475      1
  5476  5475  5476      1
  5477  5475  5478      1
  5478  5475  5479      1
  5479  5476  5477      1
  5480  5476  5480      1
  5481  5476  5481      1
  5482  5477  5482      1
  5483  5482  5483      1
  5484  5482  5485      1
  5485  5482  5486      1
  5486  5483  5484      1
  5487  5483  5487      1
  5488  5483  5488      1
  5489  5484  5489      1
  5490  5489  5490      1
  5491  5489  5492      1
  5492  5489  5493      1
  5493  5490  5491      1
  5494  5490  5494      1
  5495  5490  5495      1
  5496  5491  5496      1
  5497  5496  5497      1
  5498  5496  5499      1
  5499  5496  5500      1
  5500  5497  5498      1
  5501  5497  5501      1
  5502  5497  5502      1
  5503  5498  5503      1
  5504  5503  5504      1
  5505  5503  5506      1
  5506  5503  5507      1
  5507  5504  5505      1
  5508  5504  5508      1
  5509  5504  5509      1
  5510  5505  5510      1
  5511  5510  5511      1
  5512  5510  5513      1
  5513  5510  5514      1
  5514  5511  5512      1
  5515  5511  5515      1
  5516  5511  5516      1
  5517  5512  5517      1
  5518  5517  5518      1
  5519  5517  5520      1
  5520  5517  5521      1
  5521  5518  5519      1
  5522  5518  5522      1
  5523  5518  5523      1
  5524  5519  5524      1
  5525  5524  5525      1
  5526  5524  5527      1
  5527  5524  5528      1
  5528  5525  5526      1
  5529  5525  5529      1
  5530  5525  5530      1
  5531  5526  5531      1
  5532  5531  5532      1
  5533  5531  5534      1
  5534  5531  5535      1
  5535  5532  5533      1
  5536  5532  5536      1
  5537  5532  5537      1
  5538  5533  5538      1
  5539  5538  5539      1
  5540  5538  5541      1
  5541  5538  5542      1
  5542  5539  5540      1
  5543  5539  5543      1
  5544  5539  5544      1
  5545  5540  5545      1
  5546  5545  5546      1
  5547  5545  5548      1
  5548  5545  5549      1
  5549  5546  5547      1
  5550  5546  5550      1
  5551  5546  5551      1
  5552  5547  5552      1
  5553  5552  5553      1
  5554  5552  5555      1
  5555  5552  5556      1
  5556  5553  5554      1
  5557  5553  5557      1
  5558  5553  5558      1
  5559  5554  5559      1
  5560  5559  5560      1
  5561  5559  5562      1
  5562  5559  5563      1
  5563  5560  5561      1
  5564  5560  5564      1
  5565  5560  5565      1
  5566  5561  5566      1
  5567  5566  5567      1
  5568  5566  5569      1
  5569  5566  5570      1
  5570  5567  5568      1
  5571  5567  5571      1
  5572  5567  5572      1
  5573  5568  5573      1
  5574  5573  5574      1
  5575  5573  5576      1
  5576  5573  5577      1
  5577  5574  5575      1
  5578  5574  5578      1
  5579  5574  5579      1
  5580  5575  5580      1
  5581  5580  5581      1
  5582  5580  5583      1
  5583  5580  5584      1
  5584  5581  5582      1
  5585  5581  5585      1
  5586  5581  5586      1
  5587  5582  5587      1
  5588  5587  5588      1
  5589  5587  5590      1
  5590  5587  5591      1
  5591  5588  5589      1
  5592  5588  5592      1
  5593  5588  5593      1
  5594  5589  5594      1
  5595  5594  5595      1
  5596  5594  5597      1
  5597  5594  5598      1
  5598  5595  5596      1
  5599  5595  5599      1
  5600  5595  5600      1
  5601  5596  5601      1
  5602  5601  5602      1
  5603  5601  5604      1
  5604  5601  5605      1
  5605  5602  5603      1
  5606  5602  5606      1
  5607  5602  5607      1
  5608  5603  5608      1
  5609  5608  5609      1
  5610  5608  5611      1
  5611  5608  5612      1
  5612  5609  5610      1
  5613  5609  5613      1
  5614  5609  5614      1
  5615  5610  5615      1
  5616  5615  5616      1
  5617  5615  5618      1
  5618  5615  5619      1
  5619  5616  5617      1
  5620  5616  5620      1
  5621  5616  5621      1
  5622  5617  5622      1
  5623  5622  5623      1
  5624  5622  5625      1
  5625  5622  5626      1
  5626  5623  5624      1
  5627  5623  5627      1
  5628  5623  5628      1
  5629  5624  5629      1
  5630  5629  5630      1
  5631  5629  5632      1
  5632  5629  5633      1
  5633  5630  5631      1
  5634  5630  5634      1
  5635  5630  5635      1
  5636  5631  5636      1
  5637  5636  5637      1
  5638  5636  5639      1
  5639  5636  5640      1
  5640  5637  5638      1
  5641  5637  5641      1
  5642  5637  5642      1
  5643  5638  5643      1
  5644  5643  5644      1
  5645  5643  5646      1
  5646  5643  5647      1
  5647  5644  5645      1
  5648  5644  5648      1
  5649  5644  5649      1
  5650  5645  5650      1
  5651  5650  5651      1
  5652  5650  5653      1
  5653  5650  5654      1
  5654  5651  5652      1
  5655  5651  5655      1
  5656  5651  5656      1
  5657  5652  5657      1
  5658  5657  5658      1
  5659  5657  5660      1
  5660  5657  5661      1
  5661  5658  5659      1
  5662  5658  5662      1
  5663  5658  5663      1
  5664  5659  5664      1
  5665  5664  5665      1
  5666  5664  5667      1
  5667  5664  5668      1
  5668  5665  5666      1
  5669  5665  5669      1
  5670  5665  5670      1
  5671  5666  5671      1
  5672  5671  5672      1
  5673  5671  5674      1
  5674  5671  5675      1
  5675  5672  5673      1
  5676  5672  5676      1
  5677  5672  5677      1
  5678  5673  5678      1
  5679  5678  5679      1
  5680  5678  5681      1
  5681  5678  5682      1
  5682  5679  5680      1
  5683  5679  5683      1
  5684  5679  5684      1
  5685  5680  5685      1
  5686  5685  5686      1
  5687  5685  5688      1
  5688  5685  5689      1
  5689  5686  5687      1
  5690  5686  5690      1
  5691  5686  5691      1
  5692  5687  5692      1
  5693  5692  5693      1
  5694  5692  5695      1
  5695  5692  5696      1
  5696  5693  5694      1
  5697  5693  5697      1
  5698  5693  5698      1
  5699  5694  5699      1
  5700  5699  5700      1
  5701  5699  5702      1
  5702  5699  5703      1
  5703  5700  5701      1
  5704  5700  5704      1
  5705  5700  5705      1
  5706  5701  5706      1
  5707  5706  5707      1
  5708  5706  5709      1
  5709  5706  5710      1
  5710  5707  5708      1
  5711  5707  5711      1
  5712  5707  5712      1
  5713  5708  5713      1
  5714  5713  5714      1
  5715  5713  5716      1
  5716  5713  5717      1
  5717  5714  5715      1
  5718  5714  5718      1
  5719  5714  5719      1
  5720  5715  5720      1
  5721  5720  5721      1
  5722  5720  5723      1
  5723  5720  5724      1
  5724  5721  5722      1
  5725  5721  5725      1
  5726  5721  5726      1
  5727  5722  5727      1
  5728  5727  5728      1
  5729  5727  5730      1
  5730  5727  5731      1
  5731  5728  5729      1
  5732  5728  5732      1
  5733  5728  5733      1
  5734  5729  5734      1
  5735  5734  5735      1
  5736  5734  5737      1
  5737  5734  5738      1
  5738  5735  5736      1
  5739  5735  5739      1
  5740  5735  5740      1
  5741  5736  5741      1
  5742  5741  5742      1
  5743  5741  5744      1
  5744  5741  5745      1
  5745  5742  5743      1
  5746  5742  5746      1
  5747  5742  5747      1
  5748  5743  5748      1
  5749  5748  5749      1
  5750  5748  5751      1
  5751  5748  5752      1
  5752  5749  5750      1
  5753  5749  5753      1
  5754  5749  5754      1
  5755  5750  5755      1
  5756  5755  5756      1
  5757  5755  5758      1
  5758  5755  5759      1
  5759  5756  5757      1
  5760  5756  5760      1
  5761  5756  5761      1
  5762  5757  5762      1
  5763  5762  5763      1
  5764  5762  5765      1
  5765  5762  5766      1
  5766  5763  5764      1
  5767  5763  5767      1
  5768  5763  5768      1
  5769  5764  5769      1
  5770  5769  5770      1
  5771  5769  5772      1
  5772  5769  5773      1
  5773  5770  5771      1
  5774  5770  5774      1
  5775  5770  5775      1
  5776  5771  5776      1
  5777  5776  5777      1
  5778  5776  5779      1
  5779  5776  5780      1
  5780  5777  5778      1
  5781  5777  5781      1
  5782  5777  5782      1
  5783  5778  5783      1
  5784  5783  5784      1
  5785  5783  5786      1
  5786  5783  5787      1
  5787  5784  5785      1
  5788  5784  5788      1
  5789  5784  5789      1
  5790  5785  5790      1
  5791  5790  5791      1
  5792  5790  5793      1
  5793  5790  5794      1
  5794  5791  5792      1
  5795  5791  5795      1
  5796  5791  5796      1
  5797  5792  5797      1
  5798  5797  5798      1
  5799  5797  5800      1
  5800  5797  5801      1
  5801  5798  5799      1
  5802  5798  5802      1
  5803  5798  5803      1
  5804  5799  5804      1
  5805  5804  5805      1
  5806  5804  5807      1
  5807  5804  5808      1
  5808  5805  5806      1
  5809  5805  5809      1
  5810  5805  5810      1
  5811  5806  5811      1
  5812  5811  5812      1
  5813  5811  5814      1
  5814  5811  5815      1
  5815  5812  5813      1
  5816  5812  5816      1
  5817  5812  5817      1
  5818  5813  5818      1
  5819  5818  5819      1
  5820  5818  5821      1
  5821  5818  5822      1
  5822  5819  5820      1
  5823  5819  5823      1
  5824  5819  5824      1
  5825  5820  5825      1
  5826  5825  5826      1
  5827  5825  5828      1
  5828  5825  5829      1
  5829  5826  5827      1
  5830  5826  5830      1
  5831  5826  5831      1
  5832  5827  5832      1
  5833  5832  5833      1
  5834  5832  5835      1
  5835  5832  5836      1
  5836  5833  5834      1
  5837  5833  5837      1
  5838  5833  5838      1
  5839  5834  5839      1
  5840  5839  5840      1
  5841  5839  5842      1
  5842  5839  5843      1
  5843  5840  5841      1
  5844  5840  5844      1
  5845  5840  5845      1
  5846  5841  5846      1
  5847  5846  5847      1
  5848  5846  5849      1
  5849  5846  5850      1
  5850  5847  5848      1
  5851  5847  5851      1
  5852  5847  5852      1
  5853  5848  5853      1
  5854  5853  5854      1
  5855  5853  5856      1
  5856  5853  5857      1
  5857  5854  5855      1
  5858  5854  5858      1
  5859  5854  5859      1
  5860  5855  5860      1
  5861  5860  5861      1
  5862  5860  5863      1
  5863  5860  5864      1
  5864  5861  5862      1
  5865  5861  5865      1
  5866  5861  5866      1
  5867  5862  5867      1
  5868  5867  5868      1
  5869  5867  5870      1
  5870  5867  5871      1
  5871  5868  5869      1
  5872  5868  5872      1
  5873  5868  5873      1
  5874  5869  5874      1
  5875  5874  5875      1
  5876  5874  5877      1
  5877  5874  5878      1
  5878  5875  5876      1
  5879  5875  5879      1
  5880  5875  5880      1
  5881  5876  5881      1
  5882  5881  5882      1
  5883  5881  5884      1
  5884  5881  5885      1
  5885  5882  5883      1
  5886  5882  5886      1
  5887  5882  5887      1
  5888  5883  5888      1
  5889  5888  5889      1
  5890  5888  5891      1
  5891  5888  5892      1
  5892  5889  5890      1
  5893  5889  5893      1
  5894  5889  5894      1
  5895  5890  5895      1
  5896  5895  5896      1
  5897  5895  5898      1
  5898  5895  5899      1
  5899  5896  5897      1
  5900  5896  5900      1
  5901  5896  5901      1
  5902  5897  5902      1
  5903  5902  5903      1
  5904  5902  5905      1
  5905  5902  5906      1
  5906  5903  5904      1
  5907  5903  5907      1
  5908  5903  5908      1
  5909  5904  5909      1
  5910  5909  5910      1
  5911  5909  5912      1
  5912  5909  5913      1
  5913  5910  5911      1
  5914  5910  5914      1
  5915  5910  5915      1
  5916  5911  5916      1
  5917  5916  5917      1
  5918  5916  5919      1
  5919  5916  5920      1
  5920  5917  5918      1
  5921  5917  5921      1
  5922  5917  5922      1
  5923  5918  5923      1
  5924  5923  5924      1
  5925  5923  5926      1
  5926  5923  5927      1
  5927  5924  5925      1
  5928  5924  5928      1
  5929  5924  5929      1
  5930  5925  5930      1
  5931  5930  5931      1
  5932  5930  5933      1
  5933  5930  5934      1
  5934  5931  5932      1
  5935  5931  5935      1
  5936  5931  5936      1
  5937  5932  5937      1
  5938  5937  5938      1
  5939  5937  5940      1
  5940  5937  5941      1
  5941  5938  5939      1
  5942  5938  5942      1
  5943  5938  5943      1
  5944  5939  5944      1
  5945  5944  5945      1
  5946  5944  5947      1
  5947  5944  5948      1
  5948  5945  5946      1
  5949  5945  5949      1
  5950  5945  5950      1
  5951  5946  5951      1
  5952  5951  5952      1
  5953  5951  5954      1
  5954  5951  5955      1
  5955  5952  5953      1
  5956  5952  5956      1
  5957  5952  5957      1
  5958  5953  5958      1
  5959  5958  5959      1
  5960  5958  5961      1
  5961  5958  5962      1
  5962  5959  5960      1
  5963  5959  5963      1
  5964  5959  5964      1
  5965  5960  5965      1
  5966  5965  5966      1
  5967  5965  5968      1
  5968  5965  5969      1
  5969  5966  5967      1
  5970  5966  5970      1
  5971  5966  5971      1
  5972  5967  5972      1
  5973  5972  5973      1
  5974  5972  5975      1
  5975  5972  5976      1
  5976  5973  5974      1
  5977  5973  5977      1
  5978  5973  5978      1
  5979  5974  5979      1
  5980  5979  5980      1
  5981  5979  5982      1
  5982  5979  5983      1
  5983  5980  5981      1
  5984  5980  5984      1
  5985  5980  5985      1
  5986  5981  5986      1
  5987  5986  5987      1
  5988  5986  5989      1
  5989  5986  5990      1
  5990  5987  5988      1
  5991  5987  5991      1
  5992  5987  5992      1
  5993  5988  5993      1
  5994  5993  5994      1
  5995  5993  5996      1
  5996  5993  5997      1
  5997  5994  5995      1
  5998  5994  5998      1
  5999  5994  5999      1
  6000  5995  6000      1
  6001  6000  6001      1
  6002  6000  6003      1
  6003  6000  6004      1
  6004  6001  6002      1
  6005  6001  6005      1
  6006  6001  6006      1
  6007  6002  6007      1
  6008  6007  6008      1
  6009  6007  6010      1
  6010  6007  6011      1
  6011  6008  6009      1
  6012  6008  6012      1
  6013  6008  6013      1
  6014  6009  6014      1
  6015  6014  6015      1
  6016  6014  6017      1
  6017  6014  6018      1
  6018  6015  6016      1
  6019  6015  6019      1
  6020  6015  6020      1
  6021  6016  6021      1
  6022  6021  6022      1
  6023  6021  6024      1
  6024  6021  6025      1
  6025  6022  6023      1
  6026  6022  6026      1
  6027  6022  6027      1
  6028  6023  6028      1
  6029  6028  6029      1
  6030  6028  6031      1
  6031  6028  6032      1
  6032  6029  6030      1
  6033  6029  6033      1
  6034  6029  6034      1
  6035  6030  6035      1
  6036  6035  6036      1
  6037  6035  6038      1
  6038  6035  6039      1
  6039  6036  6037      1
  6040  6036  6040      1
  6041  6036  6041      1
  6042  6037  6042      1
  6043  6042  6043      1
  6044  6042  6045      1
  6045  6042  6046      1
  6046  6043  6044      1
  6047  6043  6047      1
  6048  6043  6048      1
  6049  6044  6049      1
  6050  6049  6050      1
  6051  6049  6052      1
  6052  6049  6053      1
  6053  6050  6051      1
  6054  6050  6054      1
  6055  6050  6055      1
  6056  6051  6056      1
  6057  6056  6057      1
  6058  6056  6059      1
  6059  6056  6060      1
  6060  6057  6058      1
  6061  6057  6061      1
  6062  6057  6062      1
  6063  6058  6063      1
  6064  6063  6064      1
  6065  6063  6066      1
  6066  6063  6067      1
  6067  6064  6065      1
  6068  6064  6068      1
  6069  6064  6069      1
  6070  6065  6070      1
  6071  6070  6071      1
  6072  6070  6073      1
  6073  6070  6074      1
  6074  6071  6072      1
  6075  6071  6075      1
  6076  6071  6076      1
  6077  6072  6077      1
  6078  6077  6078      1
  6079  6077  6080      1
  6080  6077  6081      1
  6081  6078  6079      1
  6082  6078  6082      1
  6083  6078  6083      1
  6084  6079  6084      1
  6085  6084  6085      1
  6086  6084  6087      1
  6087  6084  6088      1
  6088  6085  6086      1
  6089  6085  6089      1
  6090  6085  6090      1
  6091  6086  6091      1
  6092  6091  6092      1
  6093  6091  6094      1
  6094  6091  6095      1
  6095  6092  6093      1
  6096  6092  6096      1
  6097  6092  6097      1
  6098  6093  6098      1
  6099  6098  6099      1
  6100  6098  6101      1
  6101  6098  6102      1
  6102  6099  6100      1
  6103  6099  6103      1
  6104  6099  6104      1
  6105  6100  6105      1
  6106  6105  6106      1
  6107  6105  6108      1
  6108  6105  6109      1
  6109  6106  6107      1
  6110  6106  6110      1
  6111  6106  6111      1
  6112  6107  6112      1
  6113  6112  6113      1
  6114  6112  6115      1
  6115  6112  6116      1
  6116  6113  6114      1
  6117  6113  6117      1
  6118  6113  6118      1
  6119  6114  6119      1
  6120  6119  6120      1
  6121  6119  6122      1
  6122  6119  6123      1
  6123  6120  6121      1
  6124  6120  6124      1
  6125  6120  6125      1
  6126  6121  6126      1
  6127  6126  6127      1
  6128  6126  6129      1
  6129  6126  6130      1
  6130  6127  6128      1
  6131  6127  6131      1
  6132  6127  6132      1
  6133  6128  6133      1
  6134  6133  6134      1
  6135  6133  6136      1
  6136  6133  6137      1
  6137  6134  6135      1
  6138  6134  6138      1
  6139  6134  6139      1
  6140  6135  6140      1
  6141  6140  6141      1
  6142  6140  6143      1
  6143  6140  6144      1
  6144  6141  6142      1
  6145  6141  6145      1
  6146  6141  6146      1
  6147  6142  6147      1
  6148  6147  6148      1
  6149  6147  6150      1
  6150  6147  6151      1
  6151  6148  6149      1
  6152  6148  6152      1
  6153  6148  6153      1
  6154  6149  6154      1
  6155  6154  6155      1
  6156  6154  6157      1
  6157  6154  6158      1
  6158  6155  6156      1
  6159  6155  6159      1
  6160  6155  6160      1
  6161  6156  6161      1
  6162  6161  6162      1
  6163  6161  6164      1
  6164  6161  6165      1
  6165  6162  6163      1
  6166  6162  6166      1
  6167  6162  6167      1
  6168  6163  6168      1
  6169  6168  6169      1
  6170  6168  6171      1
  6171  6168  6172      1
  6172  6169  6170      1
  6173  6169  6173      1
  6174  6169  6174      1
  6175  6170  6175      1
  6176  6175  6176      1
  6177  6175  6178      1
  6178  6175  6179      1
  6179  6176  6177      1
  6180  6176  6180      1
  6181  6176  6181      1
  6182  6177  6182      1
  6183  6182  6183      1
  6184  6182  6185      1
  6185  6182  6186      1
  6186  6183  6184      1
  6187  6183  6187      1
  6188  6183  6188      1
  6189  6184  6189      1
  6190  6189  6190      1
  6191  6189  6192      1
  6192  6189  6193      1
  6193  6190  6191      1
  6194  6190  6194      1
  6195  6190  6195      1
  6196  6191  6196      1
  6197  6196  6197      1
  6198  6196  6199      1
  6199  6196  6200      1
  6200  6197  6198      1
  6201  6197  6201      1
  6202  6197  6202      1
  6203  6198  6203      1
  6204  6203  6204      1
  6205  6203  6206      1
  6206  6203  6207      1
  6207  6204  6205      1
  6208  6204  6208      1
  6209  6204  6209      1
  6210  6205  6210      1
  6211  6210  6211      1
  6212  6210  6213      1
  6213  6210  6214      1
  6214  6211  6212      1
  6215  6211  6215      1
  6216  6211  6216      1
  6217  6212  6217      1
  6218  6217  6218      1
  6219  6217  6220      1
  6220  6217  6221      1
  6221  6218  6219      1
  6222  6218  6222      1
  6223  6218  6223      1
  6224  6219  6224      1
  6225  6224  6225      1
  6226  6224  6227      1
  6227  6224  6228      1
  6228  6225  6226      1
  6229  6225  6229      1
  6230  6225  6230      1
  6231  6226  6231      1
  6232  6231  6232      1
  6233  6231  6234      1
  6234  6231  6235      1
  6235  6232  6233      1
  6236  6232  6236      1
  6237  6232  6237      1
  6238  6233  6238      1
  6239  6238  6239      1
  6240  6238  6241      1
  6241  6238  6242      1
  6242  6239  6240      1
  6243  6239  6243      1
  6244  6239  6244      1
  6245  6240  6245      1
  6246  6245  6246      1
  6247  6245  6248      1
  6248  6245  6249      1
  6249  6246  6247      1
  6250  6246  6250      1
  6251  6246  6251      1
  6252  6247  6252      1
  6253  6252  6253      1
  6254  6252  6255      1
  6255  6252  6256      1
  6256  6253  6254      1
  6257  6253  6257      1
  6258  6253  6258      1
  6259  6254  6259      1
  6260  6259  6260      1
  6261  6259  6262      1
  6262  6259  6263      1
  6263  6260  6261      1
  6264  6260  6264      1
  6265  6260  6265      1
  6266  6261  6266      1
  6267  6266  6267      1
  6268  6266  6269      1
  6269  6266  6270      1
  6270  6267  6268      1
  6271  6267  6271      1
  6272  6267  6272      1
  6273  6268  6273      1
  6274  6273  6274      1
  6275  6273  6276      1
  6276  6273  6277      1
  6277  6274  6275      1
  6278  6274  6278      1
  6279  6274  6279      1
  6280  6275  6280      1
  6281  6280  6281      1
  6282  6280  6283      1
  6283  6280  6284      1
  6284  6281  6282      1
  6285  6281  6285      1
  6286  6281  6286      1
  6287  6282  6287      1
  6288  6287  6288      1
  6289  6287  6290      1
  6290  6287  6291      1
  6291  6288  6289      1
  6292  6288  6292      1
  6293  6288  6293      1
  6294  6289  6294      1
  6295  6294  6295      1
  6296  6294  6297      1
  6297  6294  6298      1
  6298  6295  6296      1
  6299  6295  6299      1
  6300  6295  6300      1
  6301  6296  6301      1
  6302  6301  6302      1
  6303  6301  6304      1
  6304  6301  6305      1
  6305  6302  6303      1
  6306  6302  6306      1
  6307  6302  6307      1
  6308  6303  6308      1
  6309  6308  6309      1
  6310  6308  6311      1
  6311  6308  6312      1
  6312  6309  6310      1
  6313  6309  6313      1
  6314  6309  6314      1
  6315  6310  6315      1
  6316  6315  6316      1
  6317  6315  6318      1
  6318  6315  6319      1
  6319  6316  6317      1
  6320  6316  6320      1
  6321  6316  6321      1
  6322  6317  6322      1
  6323  6322  6323      1
  6324  6322  6325      1
  6325  6322  6326      1
  6326  6323  6324      1
  6327  6323  6327      1
  6328  6323  6328      1
  6329  6324  6329      1
  6330  6329  6330      1
  6331  6329  6332      1
  6332  6329  6333      1
  6333  6330  6331      1
  6334  6330  6334      1
  6335  6330  6335      1
  6336  6331  6336      1
  6337  6336  6337      1
  6338  6336  6339      1
  6339  6336  6340      1
  6340  6337  6338      1
  6341  6337  6341      1
  6342  6337  6342      1
  6343  6338  6343      1
  6344  6343  6344      1
  6345  6343  6346      1
  6346  6343  6347      1
  6347  6344  6345      1
  6348  6344  6348      1
  6349  6344  6349      1
  6350  6345  6350      1
  6351  6350  6351      1
  6352  6350  6353      1
  6353  6350  6354      1
  6354  6351  6352      1
  6355  6351  6355      1
  6356  6351  6356      1
  6357  6352  6357      1
  6358  6357  6358      1
  6359  6357  6360      1
  6360  6357  6361      1
  6361  6358  6359      1
  6362  6358  6362      1
  6363  6358  6363      1
  6364  6359  6364      1
  6365  6364  6365      1
  6366  6364  6367      1
  6367  6364  6368      1
  6368  6365  6366      1
  6369  6365  6369      1
  6370  6365  6370      1
  6371  6366  6371      1
  6372  6371  6372      1
  6373  6371  6374      1
  6374  6371  6375      1
  6375  6372  6373      1
  6376  6372  6376      1
  6377  6372  6377      1
  6378  6373  6378      1
  6379  6378  6379      1
  6380  6378  6381      1
  6381  6378  6382      1
  6382  6379  6380      1
  6383  6379  6383      1
  6384  6379  6384      1
  6385  6380  6385      1
  6386  6385  6386      1
  6387  6385  6388      1
  6388  6385  6389      1
  6389  6386  6387      1
  6390  6386  6390      1
  6391  6386  6391      1
  6392  6387  6392      1
  6393  6392  6393      1
  6394  6392  6395      1
  6395  6392  6396      1
  6396  6393  6394      1
  6397  6393  6397      1
  6398  6393  6398      1
  6399  6394  6399      1
  6400  6399  6400      1
  6401  6399  6402      1
  6402  6399  6403      1
  6403  6400  6401      1
  6404  6400  6404      1
  6405  6400  6405      1
  6406  6401  6406      1
  6407  6406  6407      1
  6408  6406  6409      1
  6409  6406  6410      1
  6410  6407  6408      1
  6411  6407  6411      1
  6412  6407  6412      1
  6413  6408  6413      1
  6414  6413  6414      1
  6415  6413  6416      1
  6416  6413  6417      1
  6417  6414  6415      1
  6418  6414  6418      1
  6419  6414  6419      1
  6420  6415  6420      1
  6421  6420  6421      1
  6422  6420  6423      1
  6423  6420  6424      1
  6424  6421  6422      1
  6425  6421  6425      1
  6426  6421  6426      1
  6427  6422  6427      1
  6428  6427  6428      1
  6429  6427  6430      1
  6430  6427  6431      1
  6431  6428  6429      1
  6432  6428  6432      1
  6433  6428  6433      1
  6434  6429  6434      1
  6435  6434  6435      1
  6436  6434  6437      1
  6437  6434  6438      1
  6438  6435  6436      1
  6439  6435  6439      1
  6440  6435  6440      1
  6441  6436  6441      1
  6442  6441  6442      1
  6443  6441  6444      1
  6444  6441  6445      1
  6445  6442  6443      1
  6446  6442  6446      1
  6447  6442  6447      1
  6448  6443  6448      1
  6449  6448  6449      1
  6450  6448  6451      1
  6451  6448  6452      1
  6452  6449  6450      1
  6453  6449  6453      1
  6454  6449  6454      1
  6455  6450  6455      1
  6456  6455  6456      1
  6457  6455  6458      1
  6458  6455  6459      1
  6459  6456  6457      1
  6460  6456  6460      1
  6461  6456  6461      1
  6462  6457  6462      1
  6463  6462  6463      1
  6464  6462  6465      1
  6465  6462  6466      1
  6466  6463  6464      1
  6467  6463  6467      1
  6468  6463  6468      1
  6469  6464  6469      1
  6470  6469  6470      1
  6471  6469  6472      1
  6472  6469  6473      1
  6473  6470  6471      1
  6474  6470  6474      1
  6475  6470  6475      1
  6476  6471  6476      1
  6477  6476  6477      1
  6478  6476  6479      1
  6479  6476  6480      1
  6480  6477  6478      1
  6481  6477  6481      1
  6482  6477  6482      1
  6483  6478  6483      1
  6484  6483  6484      1
  6485  6483  6486      1
  6486  6483  6487      1
  6487  6484  6485      1
  6488  6484  6488      1
  6489  6484  6489      1
  6490  6485  6490      1
  6491  6490  6491      1
  6492  6490  6493      1
  6493  6490  6494      1
  6494  6491  6492      1
  6495  6491  6495      1
  6496  6491  6496      1
  6497  6492  6497      1
  6498  6497  6498      1
  6499  6497  6500      1
  6500  6497  6501      1
  6501  6498  6499      1
  6502  6498  6502      1
  6503  6498  6503      1
  6504  6499  6504      1
  6505  6504  6505      1
  6506  6504  6507      1
  6507  6504  6508      1
  6508  6505  6506      1
  6509  6505  6509      1
  6510  6505  6510      1
  6511  6506  6511      1
  6512  6511  6512      1
  6513  6511  6514      1
  6514  6511  6515      1
  6515  6512  6513      1
  6516  6512  6516      1
  6517  6512  6517      1
  6518  6513  6518      1
  6519  6518  6519      1
  6520  6518  6521      1
  6521  6518  6522      1
  6522  6519  6520      1
  6523  6519  6523      1
  6524  6519  6524      1
  6525  6520  6525      1
  6526  6525  6526      1
  6527  6525  6528      1
  6528  6525  6529      1
  6529  6526  6527      1
  6530  6526  6530      1
  6531  6526  6531      1
  6532  6527  6532      1
  6533  6532  6533      1
  6534  6532  6535      1
  6535  6532  6536      1
  6536  6533  6534      1
  6537  6533  6537      1
  6538  6533  6538      1
  6539  6534  6539      1
  6540  6539  6540      1
  6541  6539  6542      1
  6542  6539  6543      1
  6543  6540  6541      1
  6544  6540  6544      1
  6545  6540  6545      1
  6546  6541  6546      1
  6547  6546  6547      1
  6548  6546  6549      1
  6549  6546  6550      1
  6550  6547  6548      1
  6551  6547  6551      1
  6552  6547  6552      1
  6553  6548  6553      1
  6554  6553  6554      1
  6555  6553  6556      1
  6556  6553  6557      1
  6557  6554  6555      1
  6558  6554  6558      1
  6559  6554  6559      1
  6560  6555  6560      1
  6561  6560  6561      1
  6562  6560  6563      1
  6563  6560  6564      1
  6564  6561  6562      1
  6565  6561  6565      1
  6566  6561  6566      1
  6567  6562  6567      1
  6568  6567  6568      1
  6569  6567  6570      1
  6570  6567  6571      1
  6571  6568  6569      1
  6572  6568  6572      1
  6573  6568  6573      1
  6574  6569  6574      1
  6575  6574  6575      1
  6576  6574  6577      1
  6577  6574  6578      1
  6578  6575  6576      1
  6579  6575  6579      1
  6580  6575  6580      1
  6581  6576  6581      1
  6582  6581  6582      1
  6583  6581  6584      1
  6584  6581  6585      1
  6585  6582  6583      1
  6586  6582  6586      1
  6587  6582  6587      1
  6588  6583  6588      1
  6589  6588  6589      1
  6590  6588  6591      1
  6591  6588  6592      1
  6592  6589  6590      1
  6593  6589  6593      1
  6594  6589  6594      1
  6595  6590  6595      1
  6596  6595  6596      1
  6597  6595  6598      1
  6598  6595  6599      1
  6599  6596  6597      1
  6600  6596  6600      1
  6601  6596  6601      1
  6602  6597  6602      1
  6603  6602  6603      1
  6604  6602  6605      1
  6605  6602  6606      1
  6606  6603  6604      1
  6607  6603  6607      1
  6608  6603  6608      1
  6609  6604  6609      1
  6610  6609  6610      1
  6611  6609  6612      1
  6612  6609  6613      1
  6613  6610  6611      1
  6614  6610  6614      1
  6615  6610  6615      1
  6616  6611  6616      1
  6617  6616  6617      1
  6618  6616  6619      1
  6619  6616  6620      1
  6620  6617  6618      1
  6621  6617  6621      1
  6622  6617  6622      1
  6623  6618  6623      1
  6624  6623  6624      1
  6625  6623  6626      1
  6626  6623  6627      1
  6627  6624  6625      1
  6628  6624  6628      1
  6629  6624  6629      1
  6630  6625  6630      1
  6631  6630  6631      1
  6632  6630  6633      1
  6633  6630  6634      1
  6634  6631  6632      1
  6635  6631  6635      1
  6636  6631  6636      1
  6637  6632  6637      1
  6638  6637  6638      1
  6639  6637  6640      1
  6640  6637  6641      1
  6641  6638  6639      1
  6642  6638  6642      1
  6643  6638  6643      1
  6644  6639  6644      1
  6645  6644  6645      1
  6646  6644  6647      1
  6647  6644  6648      1
  6648  6645  6646      1
  6649  6645  6649      1
  6650  6645  6650      1
  6651  6646  6651      1
  6652  6651  6652      1
  6653  6651  6654      1
  6654  6651  6655      1
  6655  6652  6653      1
  6656  6652  6656      1
  6657  6652  6657      1
  6658  6653  6658      1
  6659  6658  6659      1
  6660  6658  6661      1
  6661  6658  6662      1
  6662  6659  6660      1
  6663  6659  6663      1
  6664  6659  6664      1
  6665  6660  6665      1
  6666  6665  6666      1
  6667  6665  6668      1
  6668  6665  6669      1
  6669  6666  6667      1
  6670  6666  6670      1
  6671  6666  6671      1
  6672  6667  6672      1
  6673  6672  6673      1
  6674  6672  6675      1
  6675  6672  6676      1
  6676  6673  6674      1
  6677  6673  6677      1
  6678  6673  6678      1
  6679  6674  6679      1
  6680  6679  6680      1
  6681  6679  6682      1
  6682  6679  6683      1
  6683  6680  6681      1
  6684  6680  6684      1
  6685  6680  6685      1
  6686  6681  6686      1
  6687  6686  6687      1
  6688  6686  6689      1
  6689  6686  6690      1
  6690  6687  6688      1
  6691  6687  6691      1
  6692  6687  6692      1
  6693  6688  6693      1
  6694  6693  6694      1
  6695  6693  6696      1
  6696  6693  6697      1
  6697  6694  6695      1
  6698  6694  6698      1
  6699  6694  6699      1
  6700  6695  6700      1
  6701  6700  6701      1
  6702  6700  6703      1
  6703  6700  6704      1
  6704  6701  6702      1
  6705  6701  6705      1
  6706  6701  6706      1
  6707  6702  6707      1
  6708  6707  6708      1
  6709  6707  6710      1
  6710  6707  6711      1
  6711  6708  6709      1
  6712  6708  6712      1
  6713  6708  6713      1
  6714  6709  6714      1
  6715  6714  6715      1
  6716  6714  6717      1
  6717  6714  6718      1
  6718  6715  6716      1
  6719  6715  6719      1
  6720  6715  6720      1
  6721  6716  6721      1
  6722  6721  6722      1
  6723  6721  6724      1
  6724  6721  6725      1
  6725  6722  6723      1
  6726  6722  6726      1
  6727  6722  6727      1
  6728  6723  6728      1
  6729  6728  6729      1
  6730  6728  6731      1
  6731  6728  6732      1
  6732  6729  6730      1
  6733  6729  6733      1
  6734  6729  6734      1
  6735  6730  6735      1
  6736  6735  6736      1
  6737  6735  6738      1
  6738  6735  6739      1
  6739  6736  6737      1
  6740  6736  6740      1
  6741  6736  6741      1
  6742  6737  6742      1
  6743  6742  6743      1
  6744  6742  6745      1
  6745  6742  6746      1
  6746  6743  6744      1
  6747  6743  6747      1
  6748  6743  6748      1
  6749  6744  6749      1
  6750  6749  6750      1
  6751  6749  6752      1
  6752  6749  6753      1
  6753  6750  6751      1
  6754  6750  6754      1
  6755  6750  6755      1
  6756  6751  6756      1
  6757  6756  6757      1
  6758  6756  6759      1
  6759  6756  6760      1
  6760  6757  6758      1
  6761  6757  6761      1
  6762  6757  6762      1
  6763  6758  6763      1
  6764  6763  6764      1
  6765  6763  6766      1
  6766  6763  6767      1
  6767  6764  6765      1
  6768  6764  6768      1
  6769  6764  6769      1
  6770  6765  6770      1
  6771  6770  6771      1
  6772  6770  6773      1
  6773  6770  6774      1
  6774  6771  6772      1
  6775  6771  6775      1
  6776  6771  6776      1
  6777  6772  6777      1
  6778  6777  6778      1
  6779  6777  6780      1
  6780  6777  6781      1
  6781  6778  6779      1
  6782  6778  6782      1
  6783  6778  6783      1
  6784  6779  6784      1
  6785  6784  6785      1
  6786  6784  6787      1
  6787  6784  6788      1
  6788  6785  6786      1
  6789  6785  6789      1
  6790  6785  6790      1
  6791  6786  6791      1
  6792  6791  6792      1
  6793  6791  6794      1
  6794  6791  6795      1
  6795  6792  6793      1
  6796  6792  6796      1
  6797  6792  6797      1
  6798  6793  6798      1
  6799  6798  6799      1
  6800  6798  6801      1
  6801  6798  6802      1
  6802  6799  6800      1
  6803  6799  6803      1
  6804  6799  6804      1
  6805  6800  6805      1
  6806  6805  6806      1
  6807  6805  6808      1
  6808  6805  6809      1
  6809  6806  6807      1
  6810  6806  6810      1
  6811  6806  6811      1
  6812  6807  6812      1
  6813  6812  6813      1
  6814  6812  6815      1
  6815  6812  6816      1
  6816  6813  6814      1
  6817  6813  6817      1
  6818  6813  6818      1
  6819  6814  6819      1
  6820  6819  6820      1
  6821  6819  6822      1
  6822  6819  6823      1
  6823  6820  6821      1
  6824  6820  6824      1
  6825  6820  6825      1
  6826  6821  6826      1
  6827  6826  6827      1
  6828  6826  6829      1
  6829  6826  6830      1
  6830  6827  6828      1
  6831  6827  6831      1
  6832  6827  6832      1
  6833  6828  6833      1
  6834  6833  6834      1
  6835  6833  6836      1
  6836  6833  6837      1
  6837  6834  6835      1
  6838  6834  6838      1
  6839  6834  6839      1
  6840  6835  6840      1
  6841  6840  6841      1
  6842  6840  6843      1
  6843  6840  6844      1
  6844  6841  6842      1
  6845  6841  6845      1
  6846  6841  6846      1
  6847  6842  6847      1
  6848  6847  6848      1
  6849  6847  6850      1
  6850  6847  6851      1
  6851  6848  6849      1
  6852  6848  6852      1
  6853  6848  6853      1
  6854  6849  6854      1
  6855  6854  6855      1
  6856  6854  6857      1
  6857  6854  6858      1
  6858  6855  6856      1
  6859  6855  6859      1
  6860  6855  6860      1
  6861  6856  6861      1
  6862  6861  6862      1
  6863  6861  6864      1
  6864  6861  6865      1
  6865  6862  6863      1
  6866  6862  6866      1
  6867  6862  6867      1
  6868  6863  6868      1
  6869  6868  6869      1
  6870  6868  6871      1
  6871  6868  6872      1
  6872  6869  6870      1
  6873  6869  6873      1
  6874  6869  6874      1
  6875  6870  6875      1
  6876  6875  6876      1
  6877  6875  6878      1
  6878  6875  6879      1
  6879  6876  6877      1
  6880  6876  6880      1
  6881  6876  6881      1
  6882  6877  6882      1
  6883  6882  6883      1
  6884  6882  6885      1
  6885  6882  6886      1
  6886  6883  6884      1
  6887  6883  6887      1
  6888  6883  6888      1
  6889  6884  6889      1
  6890  6889  6890      1
  6891  6889  6892      1
  6892  6889  6893      1
  6893  6890  6891      1
  6894  6890  6894      1
  6895  6890  6895      1
  6896  6891  6896      1
  6897  6896  6897      1
  6898  6896  6899      1
  6899  6896  6900      1
  6900  6897  6898      1
  6901  6897  6901      1
  6902  6897  6902      1
  6903  6898  6903      1
  6904  6903  6904      1
  6905  6903  6906      1
  6906  6903  6907      1
  6907  6904  6905      1
  6908  6904  6908      1
  6909  6904  6909      1
  6910  6905  6910      1
  6911  6910  6911      1
  6912  6910  6913      1
  6913  6910  6914      1
  6914  6911  6912      1
  6915  6911  6915      1
  6916  6911  6916      1
  6917  6912  6917      1
  6918  6917  6918      1
  6919  6917  6920      1
  6920  6917  6921      1
  6921  6918  6919      1
  6922  6918  6922      1
  6923  6918  6923      1
  6924  6919  6924      1
  6925  6924  6925      1
  6926  6924  6927      1
  6927  6924  6928      1
  6928  6925  6926      1
  6929  6925  6929      1
  6930  6925  6930      1
  6931  6926  6931      1
  6932  6931  6932      1
  6933  6931  6934      1
  6934  6931  6935      1
  6935  6932  6933      1
  6936  6932  6936      1
  6937  6932  6937      1
  6938  6933  6938      1
  6939  6938  6939      1
  6940  6938  6941      1
  6941  6938  6942      1
  6942  6939  6940      1
  6943  6939  6943      1
  6944  6939  6944      1
  6945  6940  6945      1
  6946  6945  6946      1
  6947  6945  6948      1
  6948  6945  6949      1
  6949  6946  6947      1
  6950  6946  6950      1
  6951  6946  6951      1
  6952  6947  6952      1
  6953  6952  6953      1
  6954  6952  6955      1
  6955  6952  6956      1
  6956  6953  6954      1
  6957  6953  6957      1
  6958  6953  6958      1
  6959  6954  6959      1
  6960  6959  6960      1
  6961  6959  6962      1
  6962  6959  6963      1
  6963  6960  6961      1
  6964  6960  6964      1
  6965  6960  6965      1
  6966  6961  6966      1
  6967  6966  6967      1
  6968  6966  6969      1
  6969  6966  6970      1
  6970  6967  6968      1
  6971  6967  6971      1
  6972  6967  6972      1
  6973  6968  6973      1
  6974  6973  6974      1
  6975  6973  6976      1
  6976  6973  6977      1
  6977  6974  6975      1
  6978  6974  6978      1
  6979  6974  6979      1
  6980  6975  6980      1
  6981  6980  6981      1
  6982  6980  6983      1
  6983  6980  6984      1
  6984  6981  6982      1
  6985  6981  6985      1
  6986  6981  6986      1
  6987  6982  6987      1
  6988  6987  6988      1
  6989  6987  6990      1
  6990  6987  6991      1
  6991  6988  6989      1
  6992  6988  6992      1
  6993  6988  6993      1
  6994  6989  6994      1
  6995  6994  6995      1
  6996  6994  6997      1
  6997  6994  6998      1
  6998  6995  6996      1
  6999  6995  6999      1
  7000  6995  7000      1
  7001  6996  7001      1
  7002  7001  7002      1
  7003  7001  7004      1
  7004  7001  7005      1
  7005  7002  7003      1
  7006  7002  7006      1
  7007  7002  7007      1
  7008  7003  7008      1
  7009  7008  7009      1
  7010  7008  7011      1
  7011  7008  7012      1
  7012  7009  7010      1
  7013  7009  7013      1
  7014  7009  7014      1
  7015  7010  7015      1
  7016  7015  7016      1
  7017  7015  7018      1
  7018  7015  7019      1
  7019  7016  7017      1
  7020  7016  7020      1
  7021  7016  7021      1
  7022  7017  7022      1
  7023  7022  7023      1
  7024  7022  7025      1
  7025  7022  7026      1
  7026  7023  7024      1
  7027  7023  7027      1
  7028  7023  7028      1
  7029  7024  7029      1
  7030  7029  7030      1
  7031  7029  7032      1
  7032  7029  7033      1
  7033  7030  7031      1
  7034  7030  7034      1
  7035  7030  7035      1
  7036  7031  7036      1
  7037  7036  7037      1
  7038  7036  7039      1
  7039  7036  7040      1
  7040  7037  7038      1
  7041  7037  7041      1
  7042  7037  7042      1
  7043  7038  7043      1
  7044  7043  7044      1
  7045  7043  7046      1
  7046  7043  7047      1
  7047  7044  7045      1
  7048  7044  7048      1
  7049  7044  7049      1
  7050  7045  7050      1
  7051  7050  7051      1
  7052  7050  7053      1
  7053  7050  7054      1
  7054  7051  7052      1
  7055  7051  7055      1
  7056  7051  7056      1
  7057  7052  7057      1
  7058  7057  7058      1
  7059  7057  7060      1
  7060  7057  7061      1
  7061  7058  7059      1
  7062  7058  7062      1
  7063  7058  7063      1
  7064  7059  7064      1
  7065  7064  7065      1
  7066  7064  7067      1
  7067  7064  7068      1
  7068  7065  7066      1
  7069  7065  7069      1
  7070  7065  7070      1
  7071  7066  7071      1
  7072  7071  7072      1
  7073  7071  7074      1
  7074  7071  7075      1
  7075  7072  7073      1
  7076  7072  7076      1
  7077  7072  7077      1
  7078  7073  7078      1
  7079  7078  7079      1
  7080  7078  7081      1
  7081  7078  7082      1
  7082  7079  7080      1
  7083  7079  7083      1
  7084  7079  7084      1
  7085  7080  7085      1
  7086  7085  7086      1
  7087  7085  7088      1
  7088  7085  7089      1
  7089  7086  7087      1
  7090  7086  7090      1
  7091  7086  7091      1
  7092  7087  7092      1
  7093  7092  7093      1
  7094  7092  7095      1
  7095  7092  7096      1
  7096  7093  7094      1
  7097  7093  7097      1
  7098  7093  7098      1
  7099  7094  7099      1
  7100  7099  7100      1
  7101  7099  7102      1
  7102  7099  7103      1
  7103  7100  7101      1
  7104  7100  7104      1
  7105  7100  7105      1
  7106  7101  7106      1
  7107  7106  7107      1
  7108  7106  7109      1
  7109  7106  7110      1
  7110  7107  7108      1
  7111  7107  7111      1
  7112  7107  7112      1
  7113  7108  7113      1
  7114  7113  7114      1
  7115  7113  7116      1
  7116  7113  7117      1
  7117  7114  7115      1
  7118  7114  7118      1
  7119  7114  7119      1
  7120  7115  7120      1
  7121  7120  7121      1
  7122  7120  7123      1
  7123  7120  7124      1
  7124  7121  7122      1
  7125  7121  7125      1
  7126  7121  7126      1
  7127  7122  7127      1
  7128  7127  7128      1
  7129  7127  7130      1
  7130  7127  7131      1
  7131  7128  7129      1
  7132  7128  7132      1
  7133  7128  7133      1
  7134  7129  7134      1
  7135  7134  7135      1
  7136  7134  7137      1
  7137  7134  7138      1
  7138  7135  7136      1
  7139  7135  7139      1
  7140  7135  7140      1
  7141  7136  7141      1
  7142  7141  7142      1
  7143  7141  7144      1
  7144  7141  7145      1
  7145  7142  7143      1
  7146  7142  7146      1
  7147  7142  7147      1
  7148  7143  7148      1
  7149  7148  7149      1
  7150  7148  7151      1
  7151  7148  7152      1
  7152  7149  7150      1
  7153  7149  7153      1
  7154  7149  7154      1
  7155  7150  7155      1
  7156  7155  7156      1
  7157  7155  7158      1
  7158  7155  7159      1
  7159  7156  7157      1
  7160  7156  7160      1
  7161  7156  7161      1
  7162  7157  7162      1
  7163  7162  7163      1
  7164  7162  7165      1
  7165  7162  7166      1
  7166  7163  7164      1
  7167  7163  7167      1
  7168  7163  7168      1
  7169  7164  7169      1
  7170  7169  7170      1
  7171  7169  7172      1
  7172  7169  7173      1
  7173  7170  7171      1
  7174  7170  7174      1
  7175  7170  7175      1
  7176  7171  7176      1
  7177  7176  7177      1
  7178  7176  7179      1
  7179  7176  7180      1
  7180  7177  7178      1
  7181  7177  7181      1
  7182  7177  7182      1
  7183  7178  7183      1
  7184  7183  7184      1
  7185  7183  7186      1
  7186  7183  7187      1
  7187  7184  7185      1
  7188  7184  7188      1
  7189  7184  7189      1
  7190  7185  7190      1
  7191  7190  7191      1
  7192  7190  7193      1
  7193  7190  7194      1
  7194  7191  7192      1
  7195  7191  7195      1
  7196  7191  7196      1
  7197  7192  7197      1
  7198  7197  7198      1
  7199  7197  7200      1
  7200  7197  7201      1
  7201  7198  7199      1
  7202  7198  7202      1
  7203  7198  7203      1
  7204  7199  7204      1
  7205  7204  7205      1
  7206  7204  7207      1
  7207  7204  7208      1
  7208  7205  7206      1
  7209  7205  7209      1
  7210  7205  7210      1
  7211  7206  7211      1
  7212  7211  7212      1
  7213  7211  7214      1
  7214  7211  7215      1
  7215  7212  7213      1
  7216  7212  7216      1
  7217  7212  7217      1
  7218  7213  7218      1
  7219  7218  7219      1
  7220  7218  7221      1
  7221  7218  7222      1
  7222  7219  7220      1
  7223  7219  7223      1
  7224  7219  7224      1
  7225  7220  7225      1
  7226  7225  7226      1
  7227  7225  7228      1
  7228  7225  7229      1
  7229  7226  7227      1
  7230  7226  7230      1
  7231  7226  7231      1
  7232  7227  7232      1
  7233  7232  7233      1
  7234  7232  7235      1
  7235  7232  7236      1
  7236  7233  7234      1
  7237  7233  7237      1
  7238  7233  7238      1
  7239  7234  7239      1
  7240  7239  7240      1
  7241  7239  7242      1
  7242  7239  7243      1
  7243  7240  7241      1
  7244  7240  7244      1
  7245  7240  7245      1
  7246  7241  7246      1
  7247  7246  7247      1
  7248  7246  7249      1
  7249  7246  7250      1
  7250  7247  7248      1
  7251  7247  7251      1
  7252  7247  7252      1
  7253  7248  7253      1
  7254  7253  7254      1
  7255  7253  7256      1
  7256  7253  7257      1
  7257  7254  7255      1
  7258  7254  7258      1
  7259  7254  7259      1
  7260  7255  7260      1
  7261  7260  7261      1
  7262  7260  7263      1
  7263  7260  7264      1
  7264  7261  7262      1
  7265  7261  7265      1
  7266  7261  7266      1
  7267  7262  7267      1
  7268  7267  7268      1
  7269  7267  7270      1
  7270  7267  7271      1
  7271  7268  7269      1
  7272  7268  7272      1
  7273  7268  7273      1
  7274  7269  7274      1
  7275  7274  7275      1
  7276  7274  7277      1
  7277  7274  7278      1
  7278  7275  7276      1
  7279  7275  7279      1
  7280  7275  7280      1
  7281  7276  7281      1
  7282  7281  7282      1
  7283  7281  7284      1
  7284  7281  7285      1
  7285  7282  7283      1
  7286  7282  7286      1
  7287  7282  7287      1
  7288  7283  7288      1
  7289  7288  7289      1
  7290  7288  7291      1
  7291  7288  7292      1
  7292  7289  7290      1
  7293  7289  7293      1
  7294  7289  7294      1
  7295  7290  7295      1
  7296  7295  7296      1
  7297  7295  7298      1
  7298  7295  7299      1
  7299  7296  7297      1
  7300  7296  7300      1
  7301  7296  7301      1
  7302  7297  7302      1
  7303  7302  7303      1
  7304  7302  7305      1
  7305  7302  7306      1
  7306  7303  7304      1
  7307  7303  7307      1
  7308  7303  7308      1
  7309  7304  7309      1
  7310  7309  7310      1
  7311  7309  7312      1
  7312  7309  7313      1
  7313  7310  7311      1
  7314  7310  7314      1
  7315  7310  7315      1
  7316  7311  7316      1
  7317  7316  7317      1
  7318  7316  7319      1
  7319  7316  7320      1
  7320  7317  7318      1
  7321  7317  7321      1
  7322  7317  7322      1
  7323  7318  7323      1
  7324  7323  7324      1
  7325  7323  7326      1
  7326  7323  7327      1
  7327  7324  7325      1
  7328  7324  7328      1
  7329  7324  7329      1
  7330  7325  7330      1
  7331  7330  7331      1
  7332  7330  7333      1
  7333  7330  7334      1
  7334  7331  7332      1
  7335  7331  7335      1
  7336  7331  7336      1
  7337  7332  7337      1
  7338  7337  7338      1
  7339  7337  7340      1
  7340  7337  7341      1
  7341  7338  7339      1
  7342  7338  7342      1
  7343  7338  7343      1
  7344  7339  7344      1
  7345  7344  7345      1
  7346  7344  7347      1
  7347  7344  7348      1
  7348  7345  7346      1
  7349  7345  7349      1
  7350  7345  7350      1
  7351  7346  7351      1
  7352  7351  7352      1
  7353  7351  7354      1
  7354  7351  7355      1
  7355  7352  7353      1
  7356  7352  7356      1
  7357  7352  7357      1
  7358  7353  7358      1
  7359  7358  7359      1
  7360  7358  7361      1
  7361  7358  7362      1
  7362  7359  7360      1
  7363  7359  7363      1
  7364  7359  7364      1
  7365  7360  7365      1
  7366  7365  7366      1
  7367  7365  7368      1
  7368  7365  7369      1
  7369  7366  7367      1
  7370  7366  7370      1
  7371  7366  7371      1
  7372  7367  7372      1
  7373  7372  7373      1
  7374  7372  7375      1
  7375  7372  7376      1
  7376  7373  7374      1
  7377  7373  7377      1
  7378  7373  7378      1
  7379  7374  7379      1
  7380  7379  7380      1
  7381  7379  7382      1
  7382  7379  7383      1
  7383  7380  7381      1
  7384  7380  7384      1
  7385  7380  7385      1
  7386  7381  7386      1
  7387  7386  7387      1
  7388  7386  7389      1
  7389  7386  7390      1
  7390  7387  7388      1
  7391  7387  7391      1
  7392  7387  7392      1
  7393  7388  7393      1
  7394  7393  7394      1
  7395  7393  7396      1
  7396  7393  7397      1
  7397  7394  7395      1
  7398  7394  7398      1
  7399  7394  7399      1
  7400  7395  7400      1
  7401  7400  7401      1
  7402  7400  7403      1
  7403  7400  7404      1
  7404  7401  7402      1
  7405  7401  7405      1
  7406  7401  7406      1
  7407  7402  7407      1
  7408  7407  7408      1
  7409  7407  7410      1
  7410  7407  7411      1
  7411  7408  7409      1
  7412  7408  7412      1
  7413  7408  7413      1
  7414  7409  7414      1
  7415  7414  7415      1
  7416  7414  7417      1
  7417  7414  7418      1
  7418  7415  7416      1
  7419  7415  7419      1
  7420  7415  7420      1
  7421  7416  7421      1
  7422  7421  7422      1
  7423  7421  7424      1
  7424  7421  7425      1
  7425  7422  7423      1
  7426  7422  7426      1
  7427  7422  7427      1
  7428  7423  7428      1
  7429  7428  7429      1
  7430  7428  7431      1
  7431  7428  7432      1
  7432  7429  7430      1
  7433  7429  7433      1
  7434  7429  7434      1
  7435  7430  7435      1
  7436  7435  7436      1
  7437  7435  7438      1
  7438  7435  7439      1
  7439  7436  7437      1
  7440  7436  7440      1
  7441  7436  7441      1
  7442  7437  7442      1
  7443  7442  7443      1
  7444  7442  7445      1
  7445  7442  7446      1
  7446  7443  7444      1
  7447  7443  7447      1
  7448  7443  7448      1
  7449  7444  7449      1
  7450  7449  7450      1
  7451  7449  7452      1
  7452  7449  7453      1
  7453  7450  7451      1
  7454  7450  7454      1
  7455  7450  7455      1
  7456  7451  7456      1
  7457  7456  7457      1
  7458  7456  7459      1
  7459  7456  7460      1
  7460  7457  7458      1
  7461  7457  7461      1
  7462  7457  7462      1
  7463  7458  7463      1
  7464  7463  7464      1
  7465  7463  7466      1
  7466  7463  7467      1
  7467  7464  7465      1
  7468  7464  7468      1
  7469  7464  7469      1
  7470  7465  7470      1
  7471  7470  7471      1
  7472  7470  7473      1
  7473  7470  7474      1
  7474  7471  7472      1
  7475  7471  7475      1
  7476  7471  7476      1
  7477  7472  7477      1
  7478  7477  7478      1
  7479  7477  7480      1
  7480  7477  7481      1
  7481  7478  7479      1
  7482  7478  7482      1
  7483  7478  7483      1
  7484  7479  7484      1
  7485  7484  7485      1
  7486  7484  7487      1
  7487  7484  7488      1
  7488  7485  7486      1
  7489  7485  7489      1
  7490  7485  7490      1
  7491  7486  7491      1
  7492  7491  7492      1
  7493  7491  7494      1
  7494  7491  7495      1
  7495  7492  7493      1
  7496  7492  7496      1
  7497  7492  7497      1
  7498  7493  7498      1
  7499  7498  7499      1
  7500  7498  7501      1
  7501  7498  7502      1
  7502  7499  7500      1
  7503  7499  7503      1
  7504  7499  7504      1
  7505  7500  7505      1
  7506  7505  7506      1
  7507  7505  7508      1
  7508  7505  7509      1
  7509  7506  7507      1
  7510  7506  7510      1
  7511  7506  7511      1
  7512  7507  7512      1
  7513  7512  7513      1
  7514  7512  7515      1
  7515  7512  7516      1
  7516  7513  7514      1
  7517  7513  7517      1
  7518  7513  7518      1
  7519  7514  7519      1
  7520  7519  7520      1
  7521  7519  7522      1
  7522  7519  7523      1
  7523  7520  7521      1
  7524  7520  7524      1
  7525  7520  7525      1
  7526  7521  7526      1
  7527  7526  7527      1
  7528  7526  7529      1
  7529  7526  7530      1
  7530  7527  7528      1
  7531  7527  7531      1
  7532  7527  7532      1
  7533  7528  7533      1
  7534  7533  7534      1
  7535  7533  7536      1
  7536  7533  7537      1
  7537  7534  7535      1
  7538  7534  7538      1
  7539  7534  7539      1
  7540  7535  7540      1
  7541  7540  7541      1
  7542  7540  7543      1
  7543  7540  7544      1
  7544  7541  7542      1
  7545  7541  7545      1
  7546  7541  7546      1
  7547  7542  7547      1
  7548  7547  7548      1
  7549  7547  7550      1
  7550  7547  7551      1
  7551  7548  7549      1
  7552  7548  7552      1
  7553  7548  7553      1
  7554  7549  7554      1
  7555  7554  7555      1
  7556  7554  7557      1
  7557  7554  7558      1
  7558  7555  7556      1
  7559  7555  7559      1
  7560  7555  7560      1
  7561  7556  7561      1
  7562  7561  7562      1
  7563  7561  7564      1
  7564  7561  7565      1
  7565  7562  7563      1
  7566  7562  7566      1
  7567  7562  7567      1
  7568  7563  7568      1
  7569  7568  7569      1
  7570  7568  7571      1
  7571  7568  7572      1
  7572  7569  7570      1
  7573  7569  7573      1
  7574  7569  7574      1
  7575  7570  7575      1
  7576  7575  7576      1
  7577  7575  7578      1
  7578  7575  7579      1
  7579  7576  7577      1
  7580  7576  7580      1
  7581  7576  7581      1
  7582  7577  7582      1
  7583  7582  7583      1
  7584  7582  7585      1
  7585  7582  7586      1
  7586  7583  7584      1
  7587  7583  7587      1
  7588  7583  7588      1
  7589  7584  7589      1
  7590  7589  7590      1
  7591  7589  7592      1
  7592  7589  7593      1
  7593  7590  7591      1
  7594  7590  7594      1
  7595  7590  7595      1
  7596  7591  7596      1
  7597  7596  7597      1
  7598  7596  7599      1
  7599  7596  7600      1
  7600  7597  7598      1
  7601  7597  7601      1
  7602  7597  7602      1
  7603  7598  7603      1
  7604  7603  7604      1
  7605  7603  7606      1
  7606  7603  7607      1
  7607  7604  7605      1
  7608  7604  7608      1
  7609  7604  7609      1
  7610  7605  7610      1
  7611  7610  7611      1
  7612  7610  7613      1
  7613  7610  7614      1
  7614  7611  7612      1
  7615  7611  7615      1
  7616  7611  7616      1
  7617  7612  7617      1
  7618  7617  7618      1
  7619  7617  7620      1
  7620  7617  7621      1
  7621  7618  7619      1
  7622  7618  7622      1
  7623  7618  7623      1
  7624  7619  7624      1
  7625  7624  7625      1
  7626  7624  7627      1
  7627  7624  7628      1
  7628  7625  7626      1
  7629  7625  7629      1
  7630  7625  7630      1
  7631  7626  7631      1
  7632  7631  7632      1
  7633  7631  7634      1
  7634  7631  7635      1
  7635  7632  7633      1
  7636  7632  7636      1
  7637  7632  7637      1
  7638  7633  7638      1
  7639  7638  7639      1
  7640  7638  7641      1
  7641  7638  7642      1
  7642  7639  7640      1
  7643  7639  7643      1
  7644  7639  7644      1
  7645  7640  7645      1
  7646  7645  7646      1
  7647  7645  7648      1
  7648  7645  7649      1
  7649  7646  7647      1
  7650  7646  7650      1
  7651  7646  7651      1
  7652  7647  7652      1
  7653  7652  7653      1
  7654  7652  7655      1
  7655  7652  7656      1
  7656  7653  7654      1
  7657  7653  7657      1
  7658  7653  7658      1
  7659  7654  7659      1
  7660  7659  7660      1
  7661  7659  7662      1
  7662  7659  7663      1
  7663  7660  7661      1
  7664  7660  7664      1
  7665  7660  7665      1
  7666  7661  7666      1
  7667  7666  7667      1
  7668  7666  7669      1
  7669  7666  7670      1
  7670  7667  7668      1
  7671  7667  7671      1
  7672  7667  7672      1
  7673  7668  7673      1
  7674  7673  7674      1
  7675  7673  7676      1
  7676  7673  7677      1
  7677  7674  7675      1
  7678  7674  7678      1
  7679  7674  7679      1
  7680  7675  7680      1
  7681  7680  7681      1
  7682  7680  7683      1
  7683  7680  7684      1
  7684  7681  7682      1
  7685  7681  7685      1
  7686  7681  7686      1
  7687  7682  7687      1
  7688  7687  7688      1
  7689  7687  7690      1
  7690  7687  7691      1
  7691  7688  7689      1
  7692  7688  7692      1
  7693  7688  7693      1
  7694  7689  7694      1
  7695  7694  7695      1
  7696  7694  7697      1
  7697  7694  7698      1
  7698  7695  7696      1
  7699  7695  7699      1
  7700  7695  7700      1
  7701  7696  7701      1
  7702  7701  7702      1
  7703  7701  7704      1
  7704  7701  7705      1
  7705  7702  7703      1
  7706  7702  7706      1
  7707  7702  7707      1
  7708  7703  7708      1
  7709  7708  7709      1
  7710  7708  7711      1
  7711  7708  7712      1
  7712  7709  7710      1
  7713  7709  7713      1
  7714  7709  7714      1
  7715  7710  7715      1
  7716  7715  7716      1
  7717  7715  7718      1
  7718  7715  7719      1
  7719  7716  7717      1
  7720  7716  7720      1
  7721  7716  7721      1
  7722  7717  7722      1
  7723  7722  7723      1
  7724  7722  7725      1
  7725  7722  7726      1
  7726  7723  7724      1
  7727  7723  7727      1
  7728  7723  7728      1
  7729  7724  7729      1
  7730  7729  7730      1
  7731  7729  7732      1
  7732  7729  7733      1
  7733  7730  7731      1
  7734  7730  7734      1
  7735  7730  7735      1
  7736  7731  7736      1
  7737  7736  7737      1
  7738  7736  7739      1
  7739  7736  7740      1
  7740  7737  7738      1
  7741  7737  7741      1
  7742  7737  7742      1
  7743  7738  7743      1
  7744  7743  7744      1
  7745  7743  7746      1
  7746  7743  7747      1
  7747  7744  7745      1
  7748  7744  7748      1
  7749  7744  7749      1
  7750  7745  7750      1
  7751  7750  7751      1
  7752  7750  7753      1
  7753  7750  7754      1
  7754  7751  7752      1
  7755  7751  7755      1
  7756  7751  7756      1
  7757  7752  7757      1
  7758  7757  7758      1
  7759  7757  7760      1
  7760  7757  7761      1
  7761  7758  7759      1
  7762  7758  7762      1
  7763  7758  7763      1
  7764  7759  7764      1
  7765  7764  7765      1
  7766  7764  7767      1
  7767  7764  7768      1
  7768  7765  7766      1
  7769  7765  7769      1
  7770  7765  7770      1
  7771  7766  7771      1
  7772  7771  7772      1
  7773  7771  7774      1
  7774  7771  7775      1
  7775  7772  7773      1
  7776  7772  7776      1
  7777  7772  7777      1
  7778  7773  7778      1
  7779  7778  7779      1
  7780  7778  7781      1
  7781  7778  7782      1
  7782  7779  7780      1
  7783  7779  7783      1
  7784  7779  7784      1
  7785  7780  7785      1
  7786  7785  7786      1
  7787  7785  7788      1
  7788  7785  7789      1
  7789  7786  7787      1
  7790  7786  7790      1
  7791  7786  7791      1
  7792  7787  7792      1
  7793  7792  7793      1
  7794  7792  7795      1
  7795  7792  7796      1
  7796  7793  7794      1
  7797  7793  7797      1
  7798  7793  7798      1
  7799  7794  7799      1
