###
### Created by PolyChef-cpp17 on Mon May 12 14:45:30 2025
###

@<TRIPOS>MOLECULE
NO_INFO
10145 10144 1 0 0
SMALL
USER_CHARGES


@<TRIPOS>ATOM
      1 C         254.8517  135.9404   98.5895 C.3       0      M_A    0.0000
      2 C         254.4432  137.4099   98.6310 C.3       0      M_A    0.0000
      3 O         253.7642  137.7747   97.4294 O.3       0      M_A    0.0000
      4 H         255.0345  135.6098   97.5615 H         0      M_A    0.0000
      5 H         254.0329  135.3333   98.9923 H         0      M_A    0.0000
      6 H         253.8221  137.6063   99.5167 H         0      M_A    0.0000
      7 H         255.3228  138.0595   98.7214 H         0      M_A    0.0000
      8 C         252.4196  137.3404   97.4429 C.3       1      M_A    0.0000
      9 C         251.8898  137.0690   96.0380 C.3       1      M_A    0.0000
     10 O         250.5590  136.5557   96.0954 O.3       1      M_A    0.0000
     11 H         252.3381  136.4497   98.0750 H         1      M_A    0.0000
     12 H         251.8150  138.1301   97.9034 H         1      M_A    0.0000
     13 H         251.9396  137.9840   95.4303 H         1      M_A    0.0000
     14 H         252.5077  136.3230   95.5227 H         1      M_A    0.0000
     15 C         249.9187  136.6366   94.8383 C.3       2      M_A    0.0000
     16 C         248.7009  137.5553   94.8722 C.3       2      M_A    0.0000
     17 O         248.8961  138.6771   94.0112 O.3       2      M_A    0.0000
     18 H         250.6443  136.9696   94.0885 H         2      M_A    0.0000
     19 H         249.5939  135.6275   94.5600 H         2      M_A    0.0000
     20 H         247.7951  136.9948   94.5997 H         2      M_A    0.0000
     21 H         248.5302  137.9435   95.8841 H         2      M_A    0.0000
     22 C         248.2435  139.8286   94.5062 C.3       3      M_A    0.0000
     23 C         248.7834  141.1095   93.8770 C.3       3      M_A    0.0000
     24 O         247.8756  141.6049   92.8929 O.3       3      M_A    0.0000
     25 H         247.1660  139.7290   94.3374 H         3      M_A    0.0000
     26 H         248.4070  139.8693   95.5892 H         3      M_A    0.0000
     27 H         248.9790  141.8614   94.6551 H         3      M_A    0.0000
     28 H         249.7427  140.9272   93.3768 H         3      M_A    0.0000
     29 C         247.3168  142.8433   93.2815 C.3       4      M_A    0.0000
     30 C         246.6086  143.5419   92.1246 C.3       4      M_A    0.0000
     31 O         245.2037  143.2935   92.1745 O.3       4      M_A    0.0000
     32 H         246.6338  142.6792   94.1218 H         4      M_A    0.0000
     33 H         248.1318  143.4841   93.6371 H         4      M_A    0.0000
     34 H         246.8249  144.6198   92.1425 H         4      M_A    0.0000
     35 H         246.9737  143.1704   91.1590 H         4      M_A    0.0000
     36 C         244.5519  143.7743   91.0166 C.3       5      M_A    0.0000
     37 C         243.0681  143.4192   91.0037 C.3       5      M_A    0.0000
     38 O         242.2723  144.5982   90.8832 O.3       5      M_A    0.0000
     39 H         244.6998  144.8573   90.9469 H         5      M_A    0.0000
     40 H         245.0335  143.3172   90.1445 H         5      M_A    0.0000
     41 H         242.8550  142.7083   90.1924 H         5      M_A    0.0000
     42 H         242.7759  142.9195   91.9357 H         5      M_A    0.0000
     43 C         241.0448  144.4662   91.5707 C.3       6      M_A    0.0000
     44 C         240.1250  145.6612   91.3380 C.3       6      M_A    0.0000
     45 O         239.1057  145.3319   90.3943 O.3       6      M_A    0.0000
     46 H         240.5630  143.5312   91.2655 H         6      M_A    0.0000
     47 H         241.2648  144.3915   92.6418 H         6      M_A    0.0000
     48 H         239.6934  145.9992   92.2911 H         6      M_A    0.0000
     49 H         240.6841  146.5141   90.9333 H         6      M_A    0.0000
     50 C         238.7175  146.4603   89.6374 C.3       7      M_A    0.0000
     51 C         237.2871  146.8934   89.9448 C.3       7      M_A    0.0000
     52 O         237.1682  148.3142   89.8739 O.3       7      M_A    0.0000
     53 H         239.4256  147.2752   89.8220 H         7      M_A    0.0000
     54 H         238.7872  146.1946   88.5763 H         7      M_A    0.0000
     55 H         236.5850  146.3986   89.2584 H         7      M_A    0.0000
     56 H         236.9939  146.5893   90.9574 H         7      M_A    0.0000
     57 C         236.2133  148.7999   90.7954 C.3       8      M_A    0.0000
     58 C         235.7173  150.1949   90.4265 C.3       8      M_A    0.0000
     59 O         234.5585  150.1110   89.5970 O.3       8      M_A    0.0000
     60 H         235.3828  148.0887   90.8576 H         8      M_A    0.0000
     61 H         236.6883  148.8420   91.7822 H         8      M_A    0.0000
     62 H         235.5165  150.7791   91.3360 H         8      M_A    0.0000
     63 H         236.4821  150.7484   89.8674 H         8      M_A    0.0000
     64 C         234.7037  150.8878   88.4255 C.3       9      M_A    0.0000
     65 C         233.5940  151.9254   88.2835 C.3       9      M_A    0.0000
     66 O         234.0209  153.0040   87.4513 O.3       9      M_A    0.0000
     67 H         235.6905  151.3627   88.4316 H         9      M_A    0.0000
     68 H         234.6674  150.2099   87.5650 H         9      M_A    0.0000
     69 H         232.6817  151.4541   87.8905 H         9      M_A    0.0000
     70 H         233.3259  152.3495   89.2592 H         9      M_A    0.0000
     71 C         233.8939  152.6818   86.0813 C.3      10      M_A    0.0000
     72 C         234.5943  153.6988   85.1850 C.3      10      M_A    0.0000
     73 O         235.0230  153.0837   83.9702 O.3      10      M_A    0.0000
     74 H         234.2844  151.6723   85.9140 H        10      M_A    0.0000
     75 H         232.8258  152.6689   85.8357 H        10      M_A    0.0000
     76 H         233.9298  154.5524   84.9883 H        10      M_A    0.0000
     77 H         235.4848  154.1087   85.6777 H        10      M_A    0.0000
     78 C         234.1313  153.3583   82.9088 C.3      11      M_A    0.0000
     79 C         234.8054  154.1290   81.7775 C.3      11      M_A    0.0000
     80 O         234.3017  153.7023   80.5117 O.3      11      M_A    0.0000
     81 H         233.7059  152.4162   82.5467 H        11      M_A    0.0000
     82 H         233.3082  153.9620   83.3078 H        11      M_A    0.0000
     83 H         234.6662  155.2104   81.9194 H        11      M_A    0.0000
     84 H         235.8887  153.9555   81.7753 H        11      M_A    0.0000
     85 C         233.5218  154.7091   79.8994 C.3      12      M_A    0.0000
     86 C         233.7715  154.7944   78.3966 C.3      12      M_A    0.0000
     87 O         232.6183  155.3023   77.7257 O.3      12      M_A    0.0000
     88 H         232.4642  154.5223   80.1145 H        12      M_A    0.0000
     89 H         233.7888  155.6680   80.3582 H        12      M_A    0.0000
     90 H         234.6572  155.4134   78.1936 H        12      M_A    0.0000
     91 H         233.9855  153.8034   77.9773 H        12      M_A    0.0000
     92 C         232.8685  156.5708   77.1554 C.3      13      M_A    0.0000
     93 C         231.5820  157.3529   76.9077 C.3      13      M_A    0.0000
     94 O         231.7722  158.7362   77.2043 O.3      13      M_A    0.0000
     95 H         233.5503  157.1275   77.8072 H        13      M_A    0.0000
     96 H         233.3786  156.4151   76.1979 H        13      M_A    0.0000
     97 H         231.2439  157.2089   75.8714 H        13      M_A    0.0000
     98 H         230.7708  156.9877   77.5500 H        13      M_A    0.0000
     99 C         230.5735  159.3401   77.6462 C.3      14      M_A    0.0000
    100 C         229.9966  160.2981   76.6082 C.3      14      M_A    0.0000
    101 O         228.7329  159.8271   76.1401 O.3      14      M_A    0.0000
    102 H         229.8530  158.5568   77.9048 H        14      M_A    0.0000
    103 H         230.7961  159.9009   78.5613 H        14      M_A    0.0000
    104 H         229.9149  161.3102   77.0299 H        14      M_A    0.0000
    105 H         230.6597  160.3797   75.7379 H        14      M_A    0.0000
    106 C         228.2667  160.5947   75.0491 C.3      15      M_A    0.0000
    107 C         227.0953  159.9261   74.3357 C.3      15      M_A    0.0000
    108 O         225.8569  160.4816   74.7781 O.3      15      M_A    0.0000
    109 H         227.9942  161.5938   75.4056 H        15      M_A    0.0000
    110 H         229.0945  160.7101   74.3400 H        15      M_A    0.0000
    111 H         227.2099  160.0216   73.2463 H        15      M_A    0.0000
    112 H         227.0677  158.8503   74.5495 H        15      M_A    0.0000
    113 C         224.8001  160.1555   73.8984 C.3      16      M_A    0.0000
    114 C         223.7402  159.2882   74.5709 C.3      16      M_A    0.0000
    115 O         222.4311  159.7176   74.1969 O.3      16      M_A    0.0000
    116 H         224.3636  161.0802   73.5060 H        16      M_A    0.0000
    117 H         225.2246  159.6040   73.0516 H        16      M_A    0.0000
    118 H         223.9007  158.2298   74.3200 H        16      M_A    0.0000
    119 H         223.8097  159.3598   75.6635 H        16      M_A    0.0000
    120 C         222.3100  159.8469   72.7949 C.3      17      M_A    0.0000
    121 C         221.1195  159.0655   72.2470 C.3      17      M_A    0.0000
    122 O         219.9371  159.8644   72.2830 O.3      17      M_A    0.0000
    123 H         222.2371  160.9093   72.5390 H        17      M_A    0.0000
    124 H         223.2286  159.4587   72.3401 H        17      M_A    0.0000
    125 H         221.3334  158.7135   71.2275 H        17      M_A    0.0000
    126 H         220.9282  158.1683   72.8489 H        17      M_A    0.0000
    127 C         218.9200  159.3201   71.4668 C.3      18      M_A    0.0000
    128 C         217.9320  158.4762   72.2667 C.3      18      M_A    0.0000
    129 O         216.6079  158.9920   72.1304 O.3      18      M_A    0.0000
    130 H         218.4095  160.1342   70.9413 H        18      M_A    0.0000
    131 H         219.3975  158.6859   70.7112 H        18      M_A    0.0000
    132 H         217.9864  157.4250   71.9488 H        18      M_A    0.0000
    133 H         218.1808  158.4881   73.3353 H        18      M_A    0.0000
    134 C         216.0048  158.5576   70.9285 C.3      19      M_A    0.0000
    135 C         215.7329  157.0562   70.9327 C.3      19      M_A    0.0000
    136 O         214.4356  156.7840   71.4625 O.3      19      M_A    0.0000
    137 H         215.0829  159.1259   70.7656 H        19      M_A    0.0000
    138 H         216.6885  158.7918   70.1045 H        19      M_A    0.0000
    139 H         215.8442  156.6475   69.9180 H        19      M_A    0.0000
    140 H         216.4614  156.5270   71.5596 H        19      M_A    0.0000
    141 C         213.4871  157.7344   71.0219 C.3      20      M_A    0.0000
    142 C         212.0959  157.1274   70.8662 C.3      20      M_A    0.0000
    143 O         211.3824  157.1877   72.1013 O.3      20      M_A    0.0000
    144 H         213.4746  158.5774   71.7210 H        20      M_A    0.0000
    145 H         213.8186  158.1153   70.0492 H        20      M_A    0.0000
    146 H         211.5469  157.6380   70.0620 H        20      M_A    0.0000
    147 H         212.1586  156.0717   70.5743 H        20      M_A    0.0000
    148 C         210.2109  156.3985   72.0609 C.3      21      M_A    0.0000
    149 C         210.5025  154.9587   71.6485 C.3      21      M_A    0.0000
    150 O         209.5734  154.0647   72.2612 O.3      21      M_A    0.0000
    151 H         209.7197  156.4378   73.0390 H        21      M_A    0.0000
    152 H         209.5284  156.8457   71.3291 H        21      M_A    0.0000
    153 H         210.4833  154.8664   70.5530 H        21      M_A    0.0000
    154 H         211.5081  154.6555   71.9656 H        21      M_A    0.0000
    155 C         209.1358  153.0726   71.3551 C.3      22      M_A    0.0000
    156 C         208.6981  151.7966   72.0681 C.3      22      M_A    0.0000
    157 O         207.4823  151.3017   71.5071 O.3      22      M_A    0.0000
    158 H         208.3252  153.4809   70.7422 H        22      M_A    0.0000
    159 H         209.9707  152.8360   70.6855 H        22      M_A    0.0000
    160 H         209.4966  151.0423   72.0206 H        22      M_A    0.0000
    161 H         208.5155  151.9852   73.1334 H        22      M_A    0.0000
    162 C         206.9943  150.1896   72.2296 C.3      23      M_A    0.0000
    163 C         205.6280  149.7330   71.7269 C.3      23      M_A    0.0000
    164 O         205.5429  148.3080   71.7335 O.3      23      M_A    0.0000
    165 H         207.7274  149.3779   72.1743 H        23      M_A    0.0000
    166 H         206.9047  150.4842   73.2815 H        23      M_A    0.0000
    167 H         204.8300  150.1840   72.3340 H        23      M_A    0.0000
    168 H         205.4572  150.0674   70.6960 H        23      M_A    0.0000
    169 C         204.2267  147.8697   72.0027 C.3      24      M_A    0.0000
    170 C         203.3123  148.0202   70.7905 C.3      24      M_A    0.0000
    171 O         202.3127  147.0011   70.7881 O.3      24      M_A    0.0000
    172 H         204.2595  146.8303   72.3464 H        24      M_A    0.0000
    173 H         203.8302  148.4780   72.8237 H        24      M_A    0.0000
    174 H         202.8613  149.0229   70.7776 H        24      M_A    0.0000
    175 H         203.8800  147.9258   69.8564 H        24      M_A    0.0000
    176 C         202.8673  145.7333   70.5022 C.3      25      M_A    0.0000
    177 C         202.0993  144.6040   71.1827 C.3      25      M_A    0.0000
    178 O         200.8839  144.3336   70.4845 O.3      25      M_A    0.0000
    179 H         202.8971  145.5928   69.4164 H        25      M_A    0.0000
    180 H         203.9013  145.7281   70.8655 H        25      M_A    0.0000
    181 H         202.7288  143.7052   71.2525 H        25      M_A    0.0000
    182 H         201.8335  144.8747   72.2122 H        25      M_A    0.0000
    183 C         200.3393  143.0845   70.8588 C.3      26      M_A    0.0000
    184 C         199.0352  143.2365   71.6362 C.3      26      M_A    0.0000
    185 O         197.9462  143.4761   70.7449 O.3      26      M_A    0.0000
    186 H         200.1954  142.4739   69.9611 H        26      M_A    0.0000
    187 H         201.0727  142.5735   71.4931 H        26      M_A    0.0000
    188 H         198.8565  142.3457   72.2555 H        26      M_A    0.0000
    189 H         199.0872  144.0869   72.3275 H        26      M_A    0.0000
    190 C         197.5141  144.8202   70.8057 C.3      27      M_A    0.0000
    191 C         196.3573  145.0951   69.8496 C.3      27      M_A    0.0000
    192 O         195.1510  145.3268   70.5770 O.3      27      M_A    0.0000
    193 H         197.2394  145.0609   71.8382 H        27      M_A    0.0000
    194 H         198.3611  145.4591   70.5305 H        27      M_A    0.0000
    195 H         196.5993  145.9452   69.1956 H        27      M_A    0.0000
    196 H         196.1824  144.2375   69.1880 H        27      M_A    0.0000
    197 C         194.0242  144.8355   69.8800 C.3      28      M_A    0.0000
    198 C         192.7895  145.7049   70.0993 C.3      28      M_A    0.0000
    199 O         191.9819  145.7333   68.9225 O.3      28      M_A    0.0000
    200 H         194.2686  144.7576   68.8152 H        28      M_A    0.0000
    201 H         193.8154  143.8241   70.2471 H        28      M_A    0.0000
    202 H         192.2195  145.3424   70.9669 H        28      M_A    0.0000
    203 H         193.0736  146.7397   70.3279 H        28      M_A    0.0000
    204 C         190.6051  145.7464   69.2403 C.3      29      M_A    0.0000
    205 C         189.9831  147.1255   69.0414 C.3      29      M_A    0.0000
    206 O         188.6442  147.0060   68.5609 O.3      29      M_A    0.0000
    207 H         190.0918  144.9905   68.6366 H        29      M_A    0.0000
    208 H         190.4993  145.4582   70.2924 H        29      M_A    0.0000
    209 H         190.0217  147.6981   69.9793 H        29      M_A    0.0000
    210 H         190.5469  147.7074   68.3017 H        29      M_A    0.0000
    211 C         187.8224  148.0434   69.0562 C.3      30      M_A    0.0000
    212 C         186.3582  147.8480   68.6741 C.3      30      M_A    0.0000
    213 O         185.5320  147.8548   69.8382 O.3      30      M_A    0.0000
    214 H         187.9423  148.1063   70.1430 H        30      M_A    0.0000
    215 H         188.1774  148.9880   68.6283 H        30      M_A    0.0000
    216 H         186.0463  148.6218   67.9579 H        30      M_A    0.0000
    217 H         186.2090  146.8845   68.1710 H        30      M_A    0.0000
    218 C         184.1889  148.1552   69.5175 C.3      31      M_A    0.0000
    219 C         183.2316  147.7797   70.6448 C.3      31      M_A    0.0000
    220 O         182.2182  148.7742   70.7930 O.3      31      M_A    0.0000
    221 H         184.1100  149.2191   69.2698 H        31      M_A    0.0000
    222 H         183.9211  147.5853   68.6204 H        31      M_A    0.0000
    223 H         182.7946  146.7883   70.4572 H        31      M_A    0.0000
    224 H         183.7623  147.7062   71.6023 H        31      M_A    0.0000
    225 C         180.9523  148.2854   70.3986 C.3      32      M_A    0.0000
    226 C         179.8105  149.1157   70.9775 C.3      32      M_A    0.0000
    227 O         179.4216  150.1392   70.0614 O.3      32      M_A    0.0000
    228 H         180.9052  148.2568   69.3048 H        32      M_A    0.0000
    229 H         180.8609  147.2552   70.7614 H        32      M_A    0.0000
    230 H         178.9617  148.4661   71.2352 H        32      M_A    0.0000
    231 H         180.1161  149.6077   71.9093 H        32      M_A    0.0000
    232 C         180.4090  151.1450   69.9599 C.3      33      M_A    0.0000
    233 C         179.8291  152.4727   69.4814 C.3      33      M_A    0.0000
    234 O         180.6053  153.5646   69.9743 O.3      33      M_A    0.0000
    235 H         180.9059  151.2572   70.9295 H        33      M_A    0.0000
    236 H         181.1619  150.8065   69.2389 H        33      M_A    0.0000
    237 H         179.7702  152.4874   68.3835 H        33      M_A    0.0000
    238 H         178.8034  152.6075   69.8467 H        33      M_A    0.0000
    239 C         179.9264  154.7940   69.8181 C.3      34      M_A    0.0000
    240 C         180.6887  155.7604   68.9164 C.3      34      M_A    0.0000
    241 O         179.8467  156.2345   67.8657 O.3      34      M_A    0.0000
    242 H         178.9211  154.6001   69.4292 H        34      M_A    0.0000
    243 H         179.8163  155.2467   70.8102 H        34      M_A    0.0000
    244 H         181.0951  156.5924   69.5095 H        34      M_A    0.0000
    245 H         181.5496  155.2656   68.4496 H        34      M_A    0.0000
    246 C         179.0230  157.2964   68.3023 C.3      35      M_A    0.0000
    247 C         179.3730  158.6138   67.6166 C.3      35      M_A    0.0000
    248 O         178.7321  158.7014   66.3440 O.3      35      M_A    0.0000
    249 H         177.9747  157.0287   68.1324 H        35      M_A    0.0000
    250 H         179.1649  157.4106   69.3831 H        35      M_A    0.0000
    251 H         179.0995  159.4616   68.2612 H        35      M_A    0.0000
    252 H         180.4540  158.6926   67.4461 H        35      M_A    0.0000
    253 C         179.6750  158.7744   65.2940 C.3      36      M_A    0.0000
    254 C         179.1005  159.4501   64.0524 C.3      36      M_A    0.0000
    255 O         179.9151  160.5556   63.6621 O.3      36      M_A    0.0000
    256 H         180.5681  159.2979   65.6515 H        36      M_A    0.0000
    257 H         179.9716  157.7514   65.0357 H        36      M_A    0.0000
    258 H         178.9986  158.7206   63.2361 H        36      M_A    0.0000
    259 H         178.0926  159.8374   64.2471 H        36      M_A    0.0000
    260 C         181.2902  160.2512   63.7784 C.3      37      M_A    0.0000
    261 C         182.1633  161.2345   63.0045 C.3      37      M_A    0.0000
    262 O         182.7218  162.2088   63.8858 O.3      37      M_A    0.0000
    263 H         181.5631  160.2301   64.8389 H        37      M_A    0.0000
    264 H         181.4477  159.2441   63.3756 H        37      M_A    0.0000
    265 H         182.9486  160.6944   62.4562 H        37      M_A    0.0000
    266 H         181.5753  161.7723   62.2504 H        37      M_A    0.0000
    267 C         183.3537  163.2511   63.1708 C.3      38      M_A    0.0000
    268 C         183.2848  164.5816   63.9146 C.3      38      M_A    0.0000
    269 O         184.3925  165.4101   63.5620 O.3      38      M_A    0.0000
    270 H         184.3912  162.9661   62.9659 H        38      M_A    0.0000
    271 H         182.8425  163.3568   62.2071 H        38      M_A    0.0000
    272 H         182.3284  165.0831   63.7075 H        38      M_A    0.0000
    273 H         183.3227  164.4268   65.0001 H        38      M_A    0.0000
    274 C         184.4512  166.5671   64.3712 C.3      39      M_A    0.0000
    275 C         185.3181  167.6585   63.7503 C.3      39      M_A    0.0000
    276 O         184.5219  168.7895   63.3967 O.3      39      M_A    0.0000
    277 H         183.4332  166.9272   64.5543 H        39      M_A    0.0000
    278 H         184.8804  166.2806   65.3381 H        39      M_A    0.0000
    279 H         186.1271  167.9390   64.4401 H        39      M_A    0.0000
    280 H         185.8045  167.3001   62.8345 H        39      M_A    0.0000
    281 C         185.2690  169.7394   62.6644 C.3      40      M_A    0.0000
    282 C         185.3920  171.0677   63.4051 C.3      40      M_A    0.0000
    283 O         186.7540  171.4933   63.4468 O.3      40      M_A    0.0000
    284 H         186.2552  169.3205   62.4376 H        40      M_A    0.0000
    285 H         184.7547  169.9109   61.7119 H        40      M_A    0.0000
    286 H         184.7504  171.8260   62.9336 H        40      M_A    0.0000
    287 H         185.0457  170.9727   64.4419 H        40      M_A    0.0000
    288 C         186.9212  172.6099   64.2965 C.3      41      M_A    0.0000
    289 C         188.3526  173.1380   64.2757 C.3      41      M_A    0.0000
    290 O         188.4975  174.1523   63.2816 O.3      41      M_A    0.0000
    291 H         186.2082  173.3892   64.0070 H        41      M_A    0.0000
    292 H         186.6737  172.2967   65.3172 H        41      M_A    0.0000
    293 H         188.6342  173.5106   65.2711 H        41      M_A    0.0000
    294 H         189.0629  172.3374   64.0341 H        41      M_A    0.0000
    295 C         189.4475  175.1241   63.6688 C.3      42      M_A    0.0000
    296 C         190.0514  175.8469   62.4684 C.3      42      M_A    0.0000
    297 O         189.4511  177.1315   62.3038 O.3      42      M_A    0.0000
    298 H         188.9747  175.8309   64.3590 H        42      M_A    0.0000
    299 H         190.2488  174.6132   64.2150 H        42      M_A    0.0000
    300 H         191.1420  175.9268   62.5828 H        42      M_A    0.0000
    301 H         189.8792  175.2828   61.5432 H        42      M_A    0.0000
    302 C         190.3955  178.0931   61.8790 C.3      43      M_A    0.0000
    303 C         189.8618  178.9584   60.7412 C.3      43      M_A    0.0000
    304 O         190.1351  180.3372   60.9904 O.3      43      M_A    0.0000
    305 H         190.6914  178.7065   62.7368 H        43      M_A    0.0000
    306 H         191.2867  177.5590   61.5302 H        43      M_A    0.0000
    307 H         190.2911  178.6324   59.7829 H        43      M_A    0.0000
    308 H         188.7741  178.8516   60.6437 H        43      M_A    0.0000
    309 C         189.9874  181.1136   59.8190 C.3      44      M_A    0.0000
    310 C         190.6353  182.4883   59.9558 C.3      44      M_A    0.0000
    311 O         191.7062  182.6319   59.0228 O.3      44      M_A    0.0000
    312 H         190.4053  180.5624   58.9698 H        44      M_A    0.0000
    313 H         188.9150  181.2440   59.6341 H        44      M_A    0.0000
    314 H         189.8816  183.2779   59.8241 H        44      M_A    0.0000
    315 H         191.0541  182.6266   60.9604 H        44      M_A    0.0000
    316 C         192.5959  183.6591   59.4106 C.3      45      M_A    0.0000
    317 C         192.5699  184.8374   58.4416 C.3      45      M_A    0.0000
    318 O         192.6282  186.0729   59.1544 O.3      45      M_A    0.0000
    319 H         192.3501  183.9791   60.4288 H        45      M_A    0.0000
    320 H         193.6078  183.2386   59.4305 H        45      M_A    0.0000
    321 H         193.3947  184.7531   57.7194 H        45      M_A    0.0000
    322 H         191.6441  184.8412   57.8528 H        45      M_A    0.0000
    323 C         193.9474  186.5762   59.2100 C.3      46      M_A    0.0000
    324 C         194.0007  188.0778   58.9444 C.3      46      M_A    0.0000
    325 O         194.1441  188.7978   60.1687 O.3      46      M_A    0.0000
    326 H         194.3824  186.3315   60.1849 H        46      M_A    0.0000
    327 H         194.5377  186.0596   58.4446 H        46      M_A    0.0000
    328 H         194.8170  188.3108   58.2455 H        46      M_A    0.0000
    329 H         193.0766  188.4248   58.4655 H        46      M_A    0.0000
    330 C         193.5497  190.0773   60.0889 C.3      47      M_A    0.0000
    331 C         192.0284  189.9991   60.0002 C.3      47      M_A    0.0000
    332 O         191.4563  191.3060   60.0508 O.3      47      M_A    0.0000
    333 H         193.8652  190.6725   60.9525 H        47      M_A    0.0000
    334 H         193.9324  190.5712   59.1884 H        47      M_A    0.0000
    335 H         191.7284  189.4663   59.0864 H        47      M_A    0.0000
    336 H         191.6151  189.4269   60.8402 H        47      M_A    0.0000
    337 C         191.4967  191.9375   58.7873 C.3      48      M_A    0.0000
    338 C         190.2160  192.7126   58.4916 C.3      48      M_A    0.0000
    339 O         190.5228  194.0197   58.0066 O.3      48      M_A    0.0000
    340 H         192.3739  192.5918   58.7426 H        48      M_A    0.0000
    341 H         191.6242  191.1597   58.0257 H        48      M_A    0.0000
    342 H         189.5927  192.1568   57.7764 H        48      M_A    0.0000
    343 H         189.6113  192.8324   59.3991 H        48      M_A    0.0000
    344 C         191.8909  194.3278   58.1800 C.3      49      M_A    0.0000
    345 C         192.2672  195.6559   57.5298 C.3      49      M_A    0.0000
    346 O         192.6904  196.5949   58.5183 O.3      49      M_A    0.0000
    347 H         192.1236  194.3316   59.2502 H        49      M_A    0.0000
    348 H         192.4781  193.5270   57.7160 H        49      M_A    0.0000
    349 H         193.0449  195.4989   56.7686 H        49      M_A    0.0000
    350 H         191.4081  196.0943   57.0068 H        49      M_A    0.0000
    351 C         192.8676  197.8833   57.9656 C.3      50      M_A    0.0000
    352 C         193.1705  198.9296   59.0341 C.3      50      M_A    0.0000
    353 O         193.9162  200.0122   58.4773 O.3      50      M_A    0.0000
    354 H         193.6637  197.8435   57.2144 H        50      M_A    0.0000
    355 H         191.9401  198.1599   57.4514 H        50      M_A    0.0000
    356 H         192.2368  199.2826   59.4950 H        50      M_A    0.0000
    357 H         193.7713  198.4999   59.8453 H        50      M_A    0.0000
    358 C         193.0651  201.0089   57.9492 C.3      51      M_A    0.0000
    359 C         193.3402  202.3806   58.5583 C.3      51      M_A    0.0000
    360 O         193.3938  203.3790   57.5394 O.3      51      M_A    0.0000
    361 H         193.1740  201.0312   56.8596 H        51      M_A    0.0000
    362 H         192.0311  200.7225   58.1731 H        51      M_A    0.0000
    363 H         192.5778  202.6203   59.3134 H        51      M_A    0.0000
    364 H         194.3051  202.3918   59.0804 H        51      M_A    0.0000
    365 C         193.4503  204.6787   58.0913 C.3      52      M_A    0.0000
    366 C         193.5947  205.7528   57.0173 C.3      52      M_A    0.0000
    367 O         192.9867  206.9719   57.4437 O.3      52      M_A    0.0000
    368 H         192.5562  204.8471   58.7011 H        52      M_A    0.0000
    369 H         194.3193  204.7244   58.7576 H        52      M_A    0.0000
    370 H         194.6555  205.9006   56.7686 H        52      M_A    0.0000
    371 H         193.1000  205.4468   56.0870 H        52      M_A    0.0000
    372 C         193.5327  207.4220   58.6669 C.3      53      M_A    0.0000
    373 C         193.7195  208.9362   58.6896 C.3      53      M_A    0.0000
    374 O         192.7090  209.5533   59.4871 O.3      53      M_A    0.0000
    375 H         192.8891  207.0908   59.4889 H        53      M_A    0.0000
    376 H         194.5095  206.9423   58.7968 H        53      M_A    0.0000
    377 H         194.7259  209.1890   59.0534 H        53      M_A    0.0000
    378 H         193.6426  209.3564   57.6791 H        53      M_A    0.0000
    379 C         192.9323  210.9422   59.6212 C.3      54      M_A    0.0000
    380 C         191.6867  211.7586   59.2892 C.3      54      M_A    0.0000
    381 O         191.4646  212.7592   60.2828 O.3      54      M_A    0.0000
    382 H         193.2827  211.1513   60.6376 H        54      M_A    0.0000
    383 H         193.7349  211.2228   58.9296 H        54      M_A    0.0000
    384 H         191.7801  212.2031   58.2879 H        54      M_A    0.0000
    385 H         190.7949  211.1201   59.2609 H        54      M_A    0.0000
    386 C         192.2701  213.8985   60.0587 C.3      55      M_A    0.0000
    387 C         191.8712  214.6427   58.7878 C.3      55      M_A    0.0000
    388 O         190.8383  215.5883   59.0649 O.3      55      M_A    0.0000
    389 H         192.2141  214.5536   60.9345 H        55      M_A    0.0000
    390 H         193.3090  213.5629   59.9617 H        55      M_A    0.0000
    391 H         192.7501  215.1298   58.3415 H        55      M_A    0.0000
    392 H         191.4862  213.9482   58.0306 H        55      M_A    0.0000
    393 C         189.6727  214.9537   59.5503 C.3      56      M_A    0.0000
    394 C         188.8421  215.8780   60.4358 C.3      56      M_A    0.0000
    395 O         187.9096  216.6196   59.6495 O.3      56      M_A    0.0000
    396 H         189.0857  214.5869   58.7015 H        56      M_A    0.0000
    397 H         189.9833  214.0832   60.1394 H        56      M_A    0.0000
    398 H         188.3327  215.2971   61.2182 H        56      M_A    0.0000
    399 H         189.4816  216.6017   60.9565 H        56      M_A    0.0000
    400 C         186.7660  216.9734   60.4005 C.3      57      M_A    0.0000
    401 C         186.5891  218.4857   60.4988 C.3      57      M_A    0.0000
    402 O         185.8482  218.9766   59.3817 O.3      57      M_A    0.0000
    403 H         185.8849  216.5005   59.9539 H        57      M_A    0.0000
    404 H         186.8860  216.5641   61.4101 H        57      M_A    0.0000
    405 H         186.1023  218.7499   61.4487 H        57      M_A    0.0000
    406 H         187.5606  218.9955   60.4983 H        57      M_A    0.0000
    407 C         185.7597  220.3869   59.3991 C.3      58      M_A    0.0000
    408 C         186.8443  221.0407   58.5481 C.3      58      M_A    0.0000
    409 O         186.3532  222.2374   57.9442 O.3      58      M_A    0.0000
    410 H         184.7607  220.6864   59.0649 H        58      M_A    0.0000
    411 H         185.8753  220.7190   60.4372 H        58      M_A    0.0000
    412 H         187.7377  221.2381   59.1578 H        58      M_A    0.0000
    413 H         187.1649  220.3723   57.7392 H        58      M_A    0.0000
    414 C         185.5842  222.9977   58.8538 C.3      59      M_A    0.0000
    415 C         186.2065  224.3631   59.1306 C.3      59      M_A    0.0000
    416 O         185.5947  225.3658   58.3192 O.3      59      M_A    0.0000
    417 H         184.5660  223.0992   58.4633 H        59      M_A    0.0000
    418 H         185.5242  222.4382   59.7944 H        59      M_A    0.0000
    419 H         186.1239  224.6082   60.1992 H        59      M_A    0.0000
    420 H         187.2785  224.3605   58.8970 H        59      M_A    0.0000
    421 C         186.1241  226.6470   58.5932 C.3      60      M_A    0.0000
    422 C         185.6132  227.7005   57.6149 C.3      60      M_A    0.0000
    423 O         185.3542  228.9297   58.2931 O.3      60      M_A    0.0000
    424 H         185.8852  226.9187   59.6270 H        60      M_A    0.0000
    425 H         187.2152  226.5855   58.5103 H        60      M_A    0.0000
    426 H         186.3342  227.8397   56.7965 H        60      M_A    0.0000
    427 H         184.6743  227.3793   57.1470 H        60      M_A    0.0000
    428 C         186.5372  229.4803   58.8357 C.3      61      M_A    0.0000
    429 C         186.6982  230.9559   58.4825 C.3      61      M_A    0.0000
    430 O         187.1964  231.6872   59.6026 O.3      61      M_A    0.0000
    431 H         186.5357  229.3314   59.9207 H        61      M_A    0.0000
    432 H         187.3872  228.9228   58.4258 H        61      M_A    0.0000
    433 H         187.3552  231.0673   57.6079 H        61      M_A    0.0000
    434 H         185.7347  231.3999   58.2025 H        61      M_A    0.0000
    435 C         188.5858  231.9201   59.4917 C.3      62      M_A    0.0000
    436 C         188.9395  233.3904   59.6951 C.3      62      M_A    0.0000
    437 O         190.0085  233.5231   60.6318 O.3      62      M_A    0.0000
    438 H         189.1133  231.2836   60.2101 H        62      M_A    0.0000
    439 H         188.8993  231.6158   58.4866 H        62      M_A    0.0000
    440 H         189.1917  233.8568   58.7318 H        62      M_A    0.0000
    441 H         188.0829  233.9488   60.0928 H        62      M_A    0.0000
    442 C         190.1253  234.8517   61.0985 C.3      63      M_A    0.0000
    443 C         188.9856  235.2322   62.0389 C.3      63      M_A    0.0000
    444 O         189.2601  236.4781   62.6795 O.3      63      M_A    0.0000
    445 H         191.0982  234.9749   61.5863 H        63      M_A    0.0000
    446 H         190.1043  235.5177   60.2282 H        63      M_A    0.0000
    447 H         188.0346  235.2668   61.4881 H        63      M_A    0.0000
    448 H         188.8583  234.4790   62.8264 H        63      M_A    0.0000
    449 C         189.2202  237.5516   61.7613 C.3      64      M_A    0.0000
    450 C         188.6701  238.8270   62.3928 C.3      64      M_A    0.0000
    451 O         189.6634  239.8523   62.3967 O.3      64      M_A    0.0000
    452 H         190.2249  237.7127   61.3561 H        64      M_A    0.0000
    453 H         188.5700  237.2591   60.9289 H        64      M_A    0.0000
    454 H         187.7625  239.1516   61.8636 H        64      M_A    0.0000
    455 H         188.3736  238.6529   63.4347 H        64      M_A    0.0000
    456 C         190.8487  239.4266   61.7559 C.3      65      M_A    0.0000
    457 C         191.6570  240.5983   61.2064 C.3      65      M_A    0.0000
    458 O         192.6446  241.0116   62.1507 O.3      65      M_A    0.0000
    459 H         191.4418  238.8326   62.4595 H        65      M_A    0.0000
    460 H         190.5655  238.7705   60.9249 H        65      M_A    0.0000
    461 H         192.1132  240.3263   60.2437 H        65      M_A    0.0000
    462 H         191.0105  241.4623   61.0077 H        65      M_A    0.0000
    463 C         193.6264  241.8296   61.5476 C.3      66      M_A    0.0000
    464 C         193.1056  243.2348   61.2605 C.3      66      M_A    0.0000
    465 O         193.4530  244.1239   62.3220 O.3      66      M_A    0.0000
    466 H         194.5113  241.8601   62.1922 H        66      M_A    0.0000
    467 H         193.9213  241.3607   60.6019 H        66      M_A    0.0000
    468 H         193.4927  243.5933   60.2959 H        66      M_A    0.0000
    469 H         192.0119  243.2380   61.1740 H        66      M_A    0.0000
    470 C         192.5338  245.1923   62.4235 C.3      67      M_A    0.0000
    471 C         192.8215  246.0849   63.6272 C.3      67      M_A    0.0000
    472 O         192.5470  247.4505   63.3146 O.3      67      M_A    0.0000
    473 H         192.5504  245.7677   61.4918 H        67      M_A    0.0000
    474 H         191.5304  244.7646   62.5311 H        67      M_A    0.0000
    475 H         192.2386  245.7488   64.4968 H        67      M_A    0.0000
    476 H         193.8769  246.0207   63.9201 H        67      M_A    0.0000
    477 C         191.1590  247.6829   63.1868 C.3      68      M_A    0.0000
    478 C         190.7058  248.9041   63.9814 C.3      68      M_A    0.0000
    479 O         190.9672  250.1021   63.2503 O.3      68      M_A    0.0000
    480 H         190.9105  247.7874   62.1253 H        68      M_A    0.0000
    481 H         190.6331  246.7988   63.5648 H        68      M_A    0.0000
    482 H         189.6402  248.8163   64.2373 H        68      M_A    0.0000
    483 H         191.2464  248.9758   64.9334 H        68      M_A    0.0000
    484 C         190.7269  251.2510   64.0371 C.3      69      M_A    0.0000
    485 C         191.7608  251.4129   65.1475 C.3      69      M_A    0.0000
    486 O         192.8674  252.1910   64.6915 O.3      69      M_A    0.0000
    487 H         190.7047  252.1316   63.3862 H        69      M_A    0.0000
    488 H         189.7339  251.1480   64.4895 H        69      M_A    0.0000
    489 H         191.2955  251.8621   66.0367 H        69      M_A    0.0000
    490 H         192.1528  250.4383   65.4641 H        69      M_A    0.0000
    491 C         193.9926  252.0319   65.5314 C.3      70      M_A    0.0000
    492 C         195.2706  252.5578   64.8848 C.3      70      M_A    0.0000
    493 O         195.5666  253.8719   65.3575 O.3      70      M_A    0.0000
    494 H         193.7987  252.5309   66.4869 H        70      M_A    0.0000
    495 H         194.1126  250.9616   65.7349 H        70      M_A    0.0000
    496 H         196.1045  251.8670   65.0756 H        70      M_A    0.0000
    497 H         195.1632  252.6173   63.7946 H        70      M_A    0.0000
    498 C         195.9388  254.7307   64.2988 C.3      71      M_A    0.0000
    499 C         196.3657  256.1075   64.7994 C.3      71      M_A    0.0000
    500 O         197.5747  256.5192   64.1617 O.3      71      M_A    0.0000
    501 H         196.7369  254.2565   63.7177 H        71      M_A    0.0000
    502 H         195.0719  254.8467   63.6383 H        71      M_A    0.0000
    503 H         195.5593  256.8371   64.6370 H        71      M_A    0.0000
    504 H         196.5534  256.0913   65.8803 H        71      M_A    0.0000
    505 C         198.0939  257.6955   64.7479 C.3      72      M_A    0.0000
    506 C         198.1187  258.8634   63.7663 C.3      72      M_A    0.0000
    507 O         197.1772  259.8637   64.1547 O.3      72      M_A    0.0000
    508 H         197.5059  257.9404   65.6388 H        72      M_A    0.0000
    509 H         199.1187  257.4851   65.0747 H        72      M_A    0.0000
    510 H         199.1349  259.2771   63.6944 H        72      M_A    0.0000
    511 H         197.8485  258.5327   62.7557 H        72      M_A    0.0000
    512 C         196.4185  259.4532   65.2739 C.3      73      M_A    0.0000
    513 C         196.3568  260.5309   66.3523 C.3      73      M_A    0.0000
    514 O         195.0529  260.5858   66.9309 O.3      73      M_A    0.0000
    515 H         195.4146  259.1696   64.9405 H        73      M_A    0.0000
    516 H         196.8935  258.5588   65.6933 H        73      M_A    0.0000
    517 H         197.1260  260.3478   67.1163 H        73      M_A    0.0000
    518 H         196.5710  261.5209   65.9306 H        73      M_A    0.0000
    519 C         195.0950  261.0781   68.2549 C.3      74      M_A    0.0000
    520 C         196.0939  262.2209   68.4110 C.3      74      M_A    0.0000
    521 O         196.0111  262.7826   69.7208 O.3      74      M_A    0.0000
    522 H         194.0882  261.3897   68.5524 H        74      M_A    0.0000
    523 H         195.3943  260.2533   68.9117 H        74      M_A    0.0000
    524 H         197.1117  261.8680   68.1909 H        74      M_A    0.0000
    525 H         195.8851  263.0254   67.6947 H        74      M_A    0.0000
    526 C         195.9541  261.7771   70.7120 C.3      75      M_A    0.0000
    527 C         194.5354  261.2551   70.9194 C.3      75      M_A    0.0000
    528 O         194.3070  260.0951   70.1193 O.3      75      M_A    0.0000
    529 H         196.6376  260.9663   70.4383 H        75      M_A    0.0000
    530 H         196.3135  262.2103   71.6525 H        75      M_A    0.0000
    531 H         194.3595  261.0471   71.9846 H        75      M_A    0.0000
    532 H         193.7933  262.0080   70.6258 H        75      M_A    0.0000
    533 C         195.4300  259.2373   70.1195 C.3      76      M_A    0.0000
    534 C         195.0829  257.8369   69.6231 C.3      76      M_A    0.0000
    535 O         196.2673  257.1245   69.2660 O.3      76      M_A    0.0000
    536 H         196.2230  259.6866   69.5123 H        76      M_A    0.0000
    537 H         195.8002  259.1670   71.1487 H        76      M_A    0.0000
    538 H         194.5058  257.2958   70.3868 H        76      M_A    0.0000
    539 H         194.4458  257.8833   68.7310 H        76      M_A    0.0000
    540 C         196.3160  255.8569   69.8886 C.3      77      M_A    0.0000
    541 C         195.0901  255.0093   69.5619 C.3      77      M_A    0.0000
    542 O         195.4463  253.9226   68.7075 O.3      77      M_A    0.0000
    543 H         197.2391  255.3480   69.5913 H        77      M_A    0.0000
    544 H         196.3591  256.0152   70.9723 H        77      M_A    0.0000
    545 H         194.6183  254.6515   70.4883 H        77      M_A    0.0000
    546 H         194.3303  255.6032   69.0387 H        77      M_A    0.0000
    547 C         194.9801  252.6897   69.2171 C.3      78      M_A    0.0000
    548 C         193.6932  252.2360   68.5343 C.3      78      M_A    0.0000
    549 O         193.4593  250.8491   68.7785 O.3      78      M_A    0.0000
    550 H         195.7697  251.9381   69.1117 H        78      M_A    0.0000
    551 H         194.7866  252.8193   70.2881 H        78      M_A    0.0000
    552 H         192.8467  252.8501   68.8738 H        78      M_A    0.0000
    553 H         193.7563  252.3722   67.4475 H        78      M_A    0.0000
    554 C         193.4489  250.1068   67.5760 C.3      79      M_A    0.0000
    555 C         192.9649  248.6756   67.7889 C.3      79      M_A    0.0000
    556 O         193.8005  247.7551   67.0873 O.3      79      M_A    0.0000
    557 H         192.8285  250.6285   66.8394 H        79      M_A    0.0000
    558 H         194.4734  250.0805   67.1873 H        79      M_A    0.0000
    559 H         192.9277  248.4433   68.8630 H        79      M_A    0.0000
    560 H         191.9432  248.5462   67.4103 H        79      M_A    0.0000
    561 C         193.3612  246.4230   67.2594 C.3      80      M_A    0.0000
    562 C         193.9979  245.4734   66.2490 C.3      80      M_A    0.0000
    563 O         194.5430  244.3315   66.9099 O.3      80      M_A    0.0000
    564 H         193.5724  246.1069   68.2865 H        80      M_A    0.0000
    565 H         192.2736  246.4068   67.1246 H        80      M_A    0.0000
    566 H         193.2614  245.1806   65.4869 H        80      M_A    0.0000
    567 H         194.8185  245.9648   65.7115 H        80      M_A    0.0000
    568 C         193.9775  243.1322   66.4214 C.3      81      M_A    0.0000
    569 C         194.1593  241.9728   67.3966 C.3      81      M_A    0.0000
    570 O         193.2027  240.9456   67.1367 O.3      81      M_A    0.0000
    571 H         192.9181  243.3006   66.2006 H        81      M_A    0.0000
    572 H         194.4772  242.8837   65.4781 H        81      M_A    0.0000
    573 H         195.1869  241.5861   67.3390 H        81      M_A    0.0000
    574 H         194.0124  242.3042   68.4321 H        81      M_A    0.0000
    575 C         193.7740  239.6603   67.2732 C.3      82      M_A    0.0000
    576 C         192.9646  238.5919   66.5441 C.3      82      M_A    0.0000
    577 O         193.8297  237.6043   65.9836 O.3      82      M_A    0.0000
    578 H         194.8075  239.6885   66.9118 H        82      M_A    0.0000
    579 H         193.8028  239.4160   68.3412 H        82      M_A    0.0000
    580 H         192.2311  238.1396   67.2270 H        82      M_A    0.0000
    581 H         192.3886  239.0302   65.7196 H        82      M_A    0.0000
    582 C         194.0012  236.5093   66.8601 C.3      83      M_A    0.0000
    583 C         193.4841  235.2059   66.2586 C.3      83      M_A    0.0000
    584 O         194.5600  234.2926   66.0433 O.3      83      M_A    0.0000
    585 H         195.0601  236.4284   67.1280 H        83      M_A    0.0000
    586 H         193.4424  236.7222   67.7786 H        83      M_A    0.0000
    587 H         192.7120  234.7684   66.9077 H        83      M_A    0.0000
    588 H         193.0054  235.3843   65.2877 H        83      M_A    0.0000
    589 C         194.0901  233.0340   65.6048 C.3      84      M_A    0.0000
    590 C         193.3571  233.1281   64.2699 C.3      84      M_A    0.0000
    591 O         193.2551  231.8400   63.6631 O.3      84      M_A    0.0000
    592 H         194.9342  232.3388   65.5441 H        84      M_A    0.0000
    593 H         193.3982  232.6498   66.3630 H        84      M_A    0.0000
    594 H         192.3661  233.5827   64.4123 H        84      M_A    0.0000
    595 H         193.8969  233.7789   63.5707 H        84      M_A    0.0000
    596 C         192.6700  230.8997   64.5407 C.3      85      M_A    0.0000
    597 C         191.2565  230.5167   64.1124 C.3      85      M_A    0.0000
    598 O         191.2559  229.2406   63.4724 O.3      85      M_A    0.0000
    599 H         193.3168  230.0180   64.6027 H        85      M_A    0.0000
    600 H         192.6281  231.3508   65.5387 H        85      M_A    0.0000
    601 H         190.5807  230.5293   64.9797 H        85      M_A    0.0000
    602 H         190.8527  231.2434   63.3965 H        85      M_A    0.0000
    603 C         189.9953  228.9470   62.9054 C.3      86      M_A    0.0000
    604 C         189.6909  229.8262   61.6961 C.3      86      M_A    0.0000
    605 O         189.5706  229.0309   60.5167 O.3      86      M_A    0.0000
    606 H         189.9613  227.8848   62.6405 H        86      M_A    0.0000
    607 H         189.2319  229.1220   63.6721 H        86      M_A    0.0000
    608 H         188.7804  230.4160   61.8752 H        86      M_A    0.0000
    609 H         190.4976  230.5496   61.5236 H        86      M_A    0.0000
    610 C         188.2698  228.4950   60.3847 C.3      87      M_A    0.0000
    611 C         187.9225  228.1819   58.9322 C.3      87      M_A    0.0000
    612 O         189.1098  228.0573   58.1494 O.3      87      M_A    0.0000
    613 H         188.1860  227.6015   61.0125 H        87      M_A    0.0000
    614 H         187.5593  229.2367   60.7671 H        87      M_A    0.0000
    615 H         187.3094  227.2710   58.8765 H        87      M_A    0.0000
    616 H         187.3206  228.9859   58.4905 H        87      M_A    0.0000
    617 C         188.8503  227.4227   56.9137 C.3      88      M_A    0.0000
    618 C         188.0002  228.2901   55.9902 C.3      88      M_A    0.0000
    619 O         188.7674  228.7290   54.8692 O.3      88      M_A    0.0000
    620 H         189.8022  227.1575   56.4414 H        88      M_A    0.0000
    621 H         188.3116  226.4908   57.1200 H        88      M_A    0.0000
    622 H         187.1042  227.7390   55.6703 H        88      M_A    0.0000
    623 H         187.6409  229.1853   56.5131 H        88      M_A    0.0000
    624 C         187.9370  229.1820   53.8195 C.3      89      M_A    0.0000
    625 C         186.8988  230.1902   54.3030 C.3      89      M_A    0.0000
    626 O         185.8127  230.2719   53.3802 O.3      89      M_A    0.0000
    627 H         188.5623  229.6076   53.0273 H        89      M_A    0.0000
    628 H         187.4182  228.3120   53.4008 H        89      M_A    0.0000
    629 H         186.5486  229.9211   55.3099 H        89      M_A    0.0000
    630 H         187.3351  231.1935   54.3864 H        89      M_A    0.0000
    631 C         184.6211  229.7550   53.9368 C.3      90      M_A    0.0000
    632 C         184.1418  228.5039   53.2065 C.3      90      M_A    0.0000
    633 O         183.3953  227.6650   54.0878 O.3      90      M_A    0.0000
    634 H         184.7818  229.5541   55.0014 H        90      M_A    0.0000
    635 H         183.8491  230.5290   53.8584 H        90      M_A    0.0000
    636 H         183.5496  228.7836   52.3233 H        90      M_A    0.0000
    637 H         184.9909  227.9168   52.8348 H        90      M_A    0.0000
    638 C         183.0989  226.4198   53.4892 C.3      91      M_A    0.0000
    639 C         183.7778  225.2596   54.2112 C.3      91      M_A    0.0000
    640 O         183.0985  224.9631   55.4313 O.3      91      M_A    0.0000
    641 H         182.0122  226.2863   53.4613 H        91      M_A    0.0000
    642 H         183.4559  226.4503   52.4534 H        91      M_A    0.0000
    643 H         183.8237  224.3788   53.5548 H        91      M_A    0.0000
    644 H         184.8157  225.5088   54.4654 H        91      M_A    0.0000
    645 C         183.4899  223.7080   55.9494 C.3      92      M_A    0.0000
    646 C         183.9956  223.8120   57.3852 C.3      92      M_A    0.0000
    647 O         182.9749  223.4236   58.3046 O.3      92      M_A    0.0000
    648 H         182.6469  223.0127   55.8766 H        92      M_A    0.0000
    649 H         184.2961  223.3189   55.3169 H        92      M_A    0.0000
    650 H         184.9020  223.2030   57.5134 H        92      M_A    0.0000
    651 H         184.2806  224.8435   57.6273 H        92      M_A    0.0000
    652 C         182.1317  222.4329   57.7531 C.3      93      M_A    0.0000
    653 C         182.9123  221.3966   56.9501 C.3      93      M_A    0.0000
    654 O         183.0305  220.1788   57.6855 O.3      93      M_A    0.0000
    655 H         181.5609  221.9601   58.5595 H        93      M_A    0.0000
    656 H         181.4164  222.9310   57.0886 H        93      M_A    0.0000
    657 H         182.4309  221.2302   55.9757 H        93      M_A    0.0000
    658 H         183.9284  221.7505   56.7352 H        93      M_A    0.0000
    659 C         182.5985  219.0702   56.9231 C.3      94      M_A    0.0000
    660 C         183.3671  218.9409   55.6114 C.3      94      M_A    0.0000
    661 O         184.5881  218.2299   55.8147 O.3      94      M_A    0.0000
    662 H         182.6931  218.1620   57.5279 H        94      M_A    0.0000
    663 H         181.5348  219.2095   56.6986 H        94      M_A    0.0000
    664 H         182.7411  218.4515   54.8514 H        94      M_A    0.0000
    665 H         183.6250  219.9283   55.2086 H        94      M_A    0.0000
    666 C         184.9538  218.2097   57.1795 C.3      95      M_A    0.0000
    667 C         186.0167  217.1552   57.4736 C.3      95      M_A    0.0000
    668 O         185.4063  215.9143   57.8275 O.3      95      M_A    0.0000
    669 H         185.2956  219.2080   57.4727 H        95      M_A    0.0000
    670 H         184.0562  217.9813   57.7655 H        95      M_A    0.0000
    671 H         186.6858  217.0394   56.6088 H        95      M_A    0.0000
    672 H         186.6509  217.4611   58.3150 H        95      M_A    0.0000
    673 C         186.3089  215.0710   58.5138 C.3      96      M_A    0.0000
    674 C         186.6531  213.8217   57.7082 C.3      96      M_A    0.0000
    675 O         187.5597  212.9919   58.4344 O.3      96      M_A    0.0000
    676 H         187.2103  215.6407   58.7641 H        96      M_A    0.0000
    677 H         185.8369  214.7670   59.4551 H        96      M_A    0.0000
    678 H         185.7359  213.2761   57.4437 H        96      M_A    0.0000
    679 H         187.1379  214.0870   56.7603 H        96      M_A    0.0000
    680 C         186.8728  212.0362   59.2166 C.3      97      M_A    0.0000
    681 C         186.1693  210.9898   58.3574 C.3      97      M_A    0.0000
    682 O         187.1079  210.0341   57.8640 O.3      97      M_A    0.0000
    683 H         187.5791  211.5681   59.9104 H        97      M_A    0.0000
    684 H         186.1228  212.5664   59.8146 H        97      M_A    0.0000
    685 H         185.3680  210.5034   58.9321 H        97      M_A    0.0000
    686 H         185.6867  211.4550   57.4888 H        97      M_A    0.0000
    687 C         186.8675  209.7266   56.5058 C.3      98      M_A    0.0000
    688 C         188.1398  209.2996   55.7799 C.3      98      M_A    0.0000
    689 O         188.1445  207.8881   55.5664 O.3      98      M_A    0.0000
    690 H         186.0984  208.9491   56.4461 H        98      M_A    0.0000
    691 H         186.4682  210.6256   56.0224 H        98      M_A    0.0000
    692 H         188.2380  209.8477   54.8318 H        98      M_A    0.0000
    693 H         189.0306  209.5454   56.3715 H        98      M_A    0.0000
    694 C         189.4216  207.4288   55.1728 C.3      99      M_A    0.0000
    695 C         189.7782  206.0958   55.8240 C.3      99      M_A    0.0000
    696 O         189.0694  205.0270   55.1969 O.3      99      M_A    0.0000
    697 H         189.4543  207.3564   54.0804 H        99      M_A    0.0000
    698 H         190.1588  208.1806   55.4773 H        99      M_A    0.0000
    699 H         190.8648  205.9326   55.7841 H        99      M_A    0.0000
    700 H         189.5049  206.0924   56.8866 H        99      M_A    0.0000
    701 C         189.4924  203.7698   55.6841 C.3     100      M_A    0.0000
    702 C         188.3156  202.8575   56.0172 C.3     100      M_A    0.0000
    703 O         188.4726  201.5872   55.3853 O.3     100      M_A    0.0000
    704 H         190.1560  203.3057   54.9467 H       100      M_A    0.0000
    705 H         190.0774  203.9408   56.5950 H       100      M_A    0.0000
    706 H         188.2137  202.7522   57.1069 H       100      M_A    0.0000
    707 H         187.3718  203.2879   55.6597 H       100      M_A    0.0000
    708 C         188.3019  201.6811   53.9856 C.3     101      M_A    0.0000
    709 C         187.5783  200.4661   53.4127 C.3     101      M_A    0.0000
    710 O         186.1787  200.5437   53.6829 O.3     101      M_A    0.0000
    711 H         187.7654  202.6070   53.7525 H       101      M_A    0.0000
    712 H         189.2957  201.7499   53.5288 H       101      M_A    0.0000
    713 H         187.7731  200.3823   52.3338 H       101      M_A    0.0000
    714 H         187.9494  199.5384   53.8658 H       101      M_A    0.0000
    715 C         185.5858  199.2613   53.7124 C.3     102      M_A    0.0000
    716 C         185.9694  198.4801   54.9657 C.3     102      M_A    0.0000
    717 O         184.8751  198.4339   55.8812 O.3     102      M_A    0.0000
    718 H         184.4988  199.3682   53.6305 H       102      M_A    0.0000
    719 H         185.9319  198.7096   52.8309 H       102      M_A    0.0000
    720 H         186.3068  197.4694   54.6944 H       102      M_A    0.0000
    721 H         186.8109  198.9572   55.4834 H       102      M_A    0.0000
    722 C         183.6879  198.0038   55.2468 C.3     103      M_A    0.0000
    723 C         183.0728  196.7919   55.9405 C.3     103      M_A    0.0000
    724 O         181.6477  196.8740   55.9211 O.3     103      M_A    0.0000
    725 H         182.9803  198.8390   55.2089 H       103      M_A    0.0000
    726 H         183.9365  197.7330   54.2143 H       103      M_A    0.0000
    727 H         183.4263  195.8642   55.4679 H       103      M_A    0.0000
    728 H         183.3846  196.7408   56.9911 H       103      M_A    0.0000
    729 C         181.0606  195.8633   56.7152 C.3     104      M_A    0.0000
    730 C         180.2168  194.8995   55.8863 C.3     104      M_A    0.0000
    731 O         180.8664  193.6330   55.7762 O.3     104      M_A    0.0000
    732 H         181.8496  195.3316   57.2578 H       104      M_A    0.0000
    733 H         180.4173  196.3492   57.4577 H       104      M_A    0.0000
    734 H         179.2144  194.7977   56.3264 H       104      M_A    0.0000
    735 H         180.0691  195.2824   54.8687 H       104      M_A    0.0000
    736 C         180.6467  192.8376   56.9234 C.3     105      M_A    0.0000
    737 C         181.1903  191.4221   56.7533 C.3     105      M_A    0.0000
    738 O         182.5047  191.3216   57.3012 O.3     105      M_A    0.0000
    739 H         181.0951  193.3316   57.7920 H       105      M_A    0.0000
    740 H         179.5654  192.7840   57.0942 H       105      M_A    0.0000
    741 H         180.5075  190.6952   57.2162 H       105      M_A    0.0000
    742 H         181.2552  191.1514   55.6920 H       105      M_A    0.0000
    743 C         182.8419  189.9809   57.5939 C.3     106      M_A    0.0000
    744 C         184.1004  189.5315   56.8575 C.3     106      M_A    0.0000
    745 O         185.0902  189.0854   57.7843 O.3     106      M_A    0.0000
    746 H         182.9569  189.8697   58.6774 H       106      M_A    0.0000
    747 H         182.0036  189.3470   57.2828 H       106      M_A    0.0000
    748 H         183.8534  188.7470   56.1278 H       106      M_A    0.0000
    749 H         184.5365  190.3592   56.2842 H       106      M_A    0.0000
    750 C         185.8063  187.9755   57.2820 C.3     107      M_A    0.0000
    751 C         187.0339  187.6532   58.1289 C.3     107      M_A    0.0000
    752 O         187.0944  186.2551   58.4110 O.3     107      M_A    0.0000
    753 H         185.1326  187.1144   57.2188 H       107      M_A    0.0000
    754 H         186.1317  188.2172   56.2637 H       107      M_A    0.0000
    755 H         187.9463  187.9986   57.6216 H       107      M_A    0.0000
    756 H         186.9973  188.1810   59.0901 H       107      M_A    0.0000
    757 C         186.0927  185.5430   57.7135 C.3     108      M_A    0.0000
    758 C         186.5032  184.1002   57.4339 C.3     108      M_A    0.0000
    759 O         185.5603  183.1923   58.0035 O.3     108      M_A    0.0000
    760 H         185.1601  185.5847   58.2862 H       108      M_A    0.0000
    761 H         185.9188  186.0534   56.7593 H       108      M_A    0.0000
    762 H         186.6100  183.9390   56.3515 H       108      M_A    0.0000
    763 H         187.4822  183.8778   57.8766 H       108      M_A    0.0000
    764 C         185.7037  181.8932   57.4662 C.3     109      M_A    0.0000
    765 C         187.1591  181.4355   57.4513 C.3     109      M_A    0.0000
    766 O         187.3009  180.1956   58.1444 O.3     109      M_A    0.0000
    767 H         185.0769  181.1994   58.0366 H       109      M_A    0.0000
    768 H         185.3270  181.9107   56.4371 H       109      M_A    0.0000
    769 H         187.5223  181.3589   56.4164 H       109      M_A    0.0000
    770 H         187.8059  182.1672   57.9514 H       109      M_A    0.0000
    771 C         186.3765  179.2338   57.6783 C.3     110      M_A    0.0000
    772 C         186.6375  178.8428   56.2267 C.3     110      M_A    0.0000
    773 O         187.2853  177.5725   56.1592 O.3     110      M_A    0.0000
    774 H         186.4097  178.3583   58.3355 H       110      M_A    0.0000
    775 H         185.3726  179.6670   57.7538 H       110      M_A    0.0000
    776 H         185.6961  178.8423   55.6587 H       110      M_A    0.0000
    777 H         187.2933  179.5725   55.7355 H       110      M_A    0.0000
    778 C         186.3517  176.5237   56.0000 C.3     111      M_A    0.0000
    779 C         187.0238  175.1539   55.9869 C.3     111      M_A    0.0000
    780 O         186.7444  174.4478   57.1957 O.3     111      M_A    0.0000
    781 H         185.6021  176.5887   56.7958 H       111      M_A    0.0000
    782 H         185.8352  176.6744   55.0451 H       111      M_A    0.0000
    783 H         186.7010  174.5812   55.1056 H       111      M_A    0.0000
    784 H         188.1137  175.2522   55.9083 H       111      M_A    0.0000
    785 C         187.0063  173.0659   57.0598 C.3     112      M_A    0.0000
    786 C         188.1807  172.6164   57.9242 C.3     112      M_A    0.0000
    787 O         187.9865  171.2757   58.3743 O.3     112      M_A    0.0000
    788 H         186.0982  172.5043   57.3038 H       112      M_A    0.0000
    789 H         187.2447  172.8699   56.0081 H       112      M_A    0.0000
    790 H         189.1230  172.7186   57.3669 H       112      M_A    0.0000
    791 H         188.2786  173.2507   58.8140 H       112      M_A    0.0000
    792 C         187.6944  170.4063   57.2991 C.3     113      M_A    0.0000
    793 C         188.1941  168.9877   57.5559 C.3     113      M_A    0.0000
    794 O         187.2299  168.0305   57.1176 O.3     113      M_A    0.0000
    795 H         186.6151  170.4178   57.1134 H       113      M_A    0.0000
    796 H         188.1890  170.7998   56.4037 H       113      M_A    0.0000
    797 H         189.1646  168.8321   57.0630 H       113      M_A    0.0000
    798 H         188.3618  168.8183   58.6269 H       113      M_A    0.0000
    799 C         187.8268  166.7759   56.8598 C.3     114      M_A    0.0000
    800 C         186.8008  165.7270   56.4411 C.3     114      M_A    0.0000
    801 O         187.4268  164.6858   55.6914 O.3     114      M_A    0.0000
    802 H         188.6010  166.8989   56.0949 H       114      M_A    0.0000
    803 H         188.3201  166.4419   57.7798 H       114      M_A    0.0000
    804 H         186.2838  165.3277   57.3255 H       114      M_A    0.0000
    805 H         186.0247  166.1694   55.8042 H       114      M_A    0.0000
    806 C         188.5395  164.1508   56.3788 C.3     115      M_A    0.0000
    807 C         188.4529  162.6338   56.5186 C.3     115      M_A    0.0000
    808 O         189.7548  162.0509   56.4630 O.3     115      M_A    0.0000
    809 H         189.4569  164.4482   55.8598 H       115      M_A    0.0000
    810 H         188.5647  164.5981   57.3791 H       115      M_A    0.0000
    811 H         187.9351  162.3676   57.4513 H       115      M_A    0.0000
    812 H         187.8625  162.1975   55.7031 H       115      M_A    0.0000
    813 C         190.7398  163.0143   56.1487 C.3     116      M_A    0.0000
    814 C         192.1090  162.6387   56.7075 C.3     116      M_A    0.0000
    815 O         192.7105  163.7603   57.3541 O.3     116      M_A    0.0000
    816 H         190.7785  163.1444   55.0620 H       116      M_A    0.0000
    817 H         190.4283  163.9698   56.5861 H       116      M_A    0.0000
    818 H         192.0177  161.7837   57.3928 H       116      M_A    0.0000
    819 H         192.7863  162.3198   55.9054 H       116      M_A    0.0000
    820 C         192.2312  164.9802   56.8258 C.3     117      M_A    0.0000
    821 C         190.7443  164.9153   56.4894 C.3     117      M_A    0.0000
    822 O         190.4473  165.7514   55.3710 O.3     117      M_A    0.0000
    823 H         192.4405  165.7851   57.5384 H       117      M_A    0.0000
    824 H         192.7930  165.1945   55.9094 H       117      M_A    0.0000
    825 H         190.4427  163.8747   56.3019 H       117      M_A    0.0000
    826 H         190.1354  165.2655   57.3322 H       117      M_A    0.0000
    827 C         191.6184  166.1034   54.6629 C.3     118      M_A    0.0000
    828 C         191.7109  165.3919   53.3164 C.3     118      M_A    0.0000
    829 O         190.8338  165.9994   52.3680 O.3     118      M_A    0.0000
    830 H         191.6471  167.1911   54.5380 H       118      M_A    0.0000
    831 H         192.4812  165.8173   55.2752 H       118      M_A    0.0000
    832 H         192.7502  165.3924   52.9574 H       118      M_A    0.0000
    833 H         191.4171  164.3387   53.4079 H       118      M_A    0.0000
    834 C         190.6675  165.1876   51.2233 C.3     119      M_A    0.0000
    835 C         189.3505  164.4175   51.2519 C.3     119      M_A    0.0000
    836 O         188.2603  165.2782   50.9225 O.3     119      M_A    0.0000
    837 H         190.7399  165.8137   50.3276 H       119      M_A    0.0000
    838 H         191.4965  164.4713   51.1948 H       119      M_A    0.0000
    839 H         189.3998  163.5559   50.5707 H       119      M_A    0.0000
    840 H         189.1562  164.0092   52.2516 H       119      M_A    0.0000
    841 C         187.1648  165.0817   51.7933 C.3     120      M_A    0.0000
    842 C         187.4597  165.5741   53.2071 C.3     120      M_A    0.0000
    843 O         188.3029  166.7254   53.1704 O.3     120      M_A    0.0000
    844 H         186.2833  165.5806   51.3768 H       120      M_A    0.0000
    845 H         186.9515  164.0072   51.8294 H       120      M_A    0.0000
    846 H         186.5208  165.7829   53.7398 H       120      M_A    0.0000
    847 H         187.9803  164.8042   53.7903 H       120      M_A    0.0000
    848 C         189.0333  166.7933   51.9626 C.3     121      M_A    0.0000
    849 C         188.4131  167.7730   50.9708 C.3     121      M_A    0.0000
    850 O         189.4236  168.5793   50.3654 O.3     121      M_A    0.0000
    851 H         190.0711  167.0620   52.1871 H       121      M_A    0.0000
    852 H         189.0393  165.7925   51.5157 H       121      M_A    0.0000
    853 H         187.8294  167.2288   50.2144 H       121      M_A    0.0000
    854 H         187.7109  168.4493   51.4740 H       121      M_A    0.0000
    855 C         190.5253  167.7998   49.9465 C.3     122      M_A    0.0000
    856 C         190.0886  166.5450   49.1963 C.3     122      M_A    0.0000
    857 O         191.1869  165.9841   48.4772 O.3     122      M_A    0.0000
    858 H         191.1871  168.4182   49.3308 H       122      M_A    0.0000
    859 H         191.0863  167.5017   50.8396 H       122      M_A    0.0000
    860 H         189.6548  165.8162   49.8960 H       122      M_A    0.0000
    861 H         189.3026  166.7773   48.4668 H       122      M_A    0.0000
    862 C         191.2636  164.5848   48.6590 C.3     123      M_A    0.0000
    863 C         192.6632  164.0454   48.3792 C.3     123      M_A    0.0000
    864 O         192.7450  162.6628   48.7247 O.3     123      M_A    0.0000
    865 H         190.9411  164.3385   49.6763 H       123      M_A    0.0000
    866 H         190.5574  164.1155   47.9646 H       123      M_A    0.0000
    867 H         192.9299  164.2107   47.3254 H       123      M_A    0.0000
    868 H         193.4154  164.5779   48.9745 H       123      M_A    0.0000
    869 C         191.4669  162.1170   48.9804 C.3     124      M_A    0.0000
    870 C         191.4614  160.5947   48.8767 C.3     124      M_A    0.0000
    871 O         192.1363  160.0146   49.9929 O.3     124      M_A    0.0000
    872 H         191.1283  162.4472   49.9682 H       124      M_A    0.0000
    873 H         190.7715  162.5254   48.2381 H       124      M_A    0.0000
    874 H         190.4295  160.2235   48.7964 H       124      M_A    0.0000
    875 H         191.9803  160.2611   47.9694 H       124      M_A    0.0000
    876 C         191.4531  158.8758   50.4756 C.3     125      M_A    0.0000
    877 C         192.2548  158.1342   51.5412 C.3     125      M_A    0.0000
    878 O         191.4370  157.8522   52.6769 O.3     125      M_A    0.0000
    879 H         190.4742  159.1822   50.8593 H       125      M_A    0.0000
    880 H         191.2809  158.2019   49.6286 H       125      M_A    0.0000
    881 H         192.6856  157.2142   51.1204 H       125      M_A    0.0000
    882 H         193.1012  158.7400   51.8882 H       125      M_A    0.0000
    883 C         191.7452  156.5916   53.2360 C.3     126      M_A    0.0000
    884 C         190.8371  156.2481   54.4131 C.3     126      M_A    0.0000
    885 O         190.5919  154.8427   54.4625 O.3     126      M_A    0.0000
    886 H         191.6830  155.8285   52.4529 H       126      M_A    0.0000
    887 H         192.7832  156.6230   53.5864 H       126      M_A    0.0000
    888 H         191.2799  156.6100   55.3522 H       126      M_A    0.0000
    889 H         189.8651  156.7480   54.3180 H       126      M_A    0.0000
    890 C         191.7366  154.1044   54.0865 C.3     127      M_A    0.0000
    891 C         192.8892  154.2923   55.0686 C.3     127      M_A    0.0000
    892 O         193.6761  153.1040   55.1501 O.3     127      M_A    0.0000
    893 H         191.4653  153.0474   53.9930 H       127      M_A    0.0000
    894 H         192.0532  154.4541   53.0972 H       127      M_A    0.0000
    895 H         193.5008  155.1575   54.7749 H       127      M_A    0.0000
    896 H         192.5145  154.5079   56.0770 H       127      M_A    0.0000
    897 C         194.3718  152.8606   53.9444 C.3     128      M_A    0.0000
    898 C         195.8482  152.5593   54.1843 C.3     128      M_A    0.0000
    899 O         196.0403  151.1674   54.4368 O.3     128      M_A    0.0000
    900 H         193.8827  152.0399   53.4090 H       128      M_A    0.0000
    901 H         194.2899  153.7584   53.3211 H       128      M_A    0.0000
    902 H         196.4485  152.8967   53.3272 H       128      M_A    0.0000
    903 H         196.2237  153.1066   55.0580 H       128      M_A    0.0000
    904 C         195.8631  150.8607   55.8048 C.3     129      M_A    0.0000
    905 C         195.7331  149.3595   56.0445 C.3     129      M_A    0.0000
    906 O         196.8918  148.8566   56.7096 O.3     129      M_A    0.0000
    907 H         196.6974  151.2814   56.3763 H       129      M_A    0.0000
    908 H         194.9458  151.3548   56.1450 H       129      M_A    0.0000
    909 H         194.8188  149.1442   56.6161 H       129      M_A    0.0000
    910 H         195.6378  148.8172   55.0954 H       129      M_A    0.0000
    911 C         196.9901  147.4522   56.5867 C.3     130      M_A    0.0000
    912 C         196.8351  146.7461   57.9304 C.3     130      M_A    0.0000
    913 O         196.0291  145.5761   57.7909 O.3     130      M_A    0.0000
    914 H         196.2410  147.1031   55.8680 H       130      M_A    0.0000
    915 H         197.9786  147.2183   56.1752 H       130      M_A    0.0000
    916 H         197.8229  146.5036   58.3479 H       130      M_A    0.0000
    917 H         196.3430  147.3986   58.6624 H       130      M_A    0.0000
    918 C         195.7511  145.2984   56.4335 C.3     131      M_A    0.0000
    919 C         196.1199  143.8675   56.0530 C.3     131      M_A    0.0000
    920 O         195.0295  143.2294   55.3885 O.3     131      M_A    0.0000
    921 H         194.6925  145.4992   56.2371 H       131      M_A    0.0000
    922 H         196.3391  145.9911   55.8205 H       131      M_A    0.0000
    923 H         197.0262  143.8620   55.4304 H       131      M_A    0.0000
    924 H         196.3550  143.2725   56.9444 H       131      M_A    0.0000
    925 C         194.9811  143.5800   54.0204 C.3     132      M_A    0.0000
    926 C         195.4218  142.4316   53.1175 C.3     132      M_A    0.0000
    927 O         194.2872  141.7217   52.6209 O.3     132      M_A    0.0000
    928 H         193.9672  143.9114   53.7720 H       132      M_A    0.0000
    929 H         195.6549  144.4306   53.8664 H       132      M_A    0.0000
    930 H         196.0461  142.8125   52.2964 H       132      M_A    0.0000
    931 H         196.0424  141.7144   53.6692 H       132      M_A    0.0000
    932 C         194.5897  140.3611   52.3881 C.3     133      M_A    0.0000
    933 C         194.1491  139.9043   51.0005 C.3     133      M_A    0.0000
    934 O         195.0314  138.8993   50.5009 O.3     133      M_A    0.0000
    935 H         195.6638  140.2038   52.5335 H       133      M_A    0.0000
    936 H         194.0625  139.7650   53.1417 H       133      M_A    0.0000
    937 H         193.1104  139.5451   51.0313 H       133      M_A    0.0000
    938 H         194.1655  140.7391   50.2888 H       133      M_A    0.0000
    939 C         194.3467  137.9673   49.6888 C.3     134      M_A    0.0000
    940 C         195.1177  136.6588   49.5416 C.3     134      M_A    0.0000
    941 O         194.2409  135.5420   49.6897 O.3     134      M_A    0.0000
    942 H         193.3495  137.7937   50.1070 H       134      M_A    0.0000
    943 H         194.2169  138.4158   48.6972 H       134      M_A    0.0000
    944 H         195.6391  136.6323   48.5740 H       134      M_A    0.0000
    945 H         195.8938  136.5715   50.3122 H       134      M_A    0.0000
    946 C         192.9358  135.8460   49.2413 C.3     135      M_A    0.0000
    947 C         192.2971  134.6765   48.4979 C.3     135      M_A    0.0000
    948 O         191.5389  133.8666   49.3963 O.3     135      M_A    0.0000
    949 H         192.3254  136.1505   50.0982 H       135      M_A    0.0000
    950 H         193.0041  136.7032   48.5617 H       135      M_A    0.0000
    951 H         191.6743  135.0471   47.6710 H       135      M_A    0.0000
    952 H         193.0625  134.0351   48.0436 H       135      M_A    0.0000
    953 C         191.7172  132.4907   49.1281 C.3     136      M_A    0.0000
    954 C         190.4189  131.7034   49.2790 C.3     136      M_A    0.0000
    955 O         190.1394  130.9662   48.0889 O.3     136      M_A    0.0000
    956 H         192.1358  132.3739   48.1227 H       136      M_A    0.0000
    957 H         192.4531  132.1010   49.8408 H       136      M_A    0.0000
    958 H         190.4761  131.0415   50.1552 H       136      M_A    0.0000
    959 H         189.5703  132.3759   49.4557 H       136      M_A    0.0000
    960 C         189.7975  129.6261   48.3788 C.3     137      M_A    0.0000
    961 C         188.3366  129.3241   48.0585 C.3     137      M_A    0.0000
    962 O         188.2153  128.0473   47.4317 O.3     137      M_A    0.0000
    963 H         190.4691  128.9588   47.8282 H       137      M_A    0.0000
    964 H         189.9679  129.4587   49.4486 H       137      M_A    0.0000
    965 H         187.7282  129.3802   48.9726 H       137      M_A    0.0000
    966 H         187.9240  130.0698   47.3675 H       137      M_A    0.0000
    967 C         186.8799  127.5855   47.4530 C.3     138      M_A    0.0000
    968 C         186.6629  126.4123   46.5019 C.3     138      M_A    0.0000
    969 O         185.6154  125.5681   46.9793 O.3     138      M_A    0.0000
    970 H         186.6111  127.3166   48.4801 H       138      M_A    0.0000
    971 H         186.2316  128.4146   47.1470 H       138      M_A    0.0000
    972 H         186.4492  126.7802   45.4880 H       138      M_A    0.0000
    973 H         187.5689  125.7986   46.4223 H       138      M_A    0.0000
    974 C         184.4028  126.2792   47.1229 C.3     139      M_A    0.0000
    975 C         183.1877  125.4120   46.8072 C.3     139      M_A    0.0000
    976 O         182.1194  125.6999   47.7092 O.3     139      M_A    0.0000
    977 H         184.3451  126.6859   48.1382 H       139      M_A    0.0000
    978 H         184.4243  127.1260   46.4274 H       139      M_A    0.0000
    979 H         182.8788  125.5575   45.7620 H       139      M_A    0.0000
    980 H         183.4280  124.3466   46.9119 H       139      M_A    0.0000
    981 C         181.0490  124.7911   47.5501 C.3     140      M_A    0.0000
    982 C         179.7344  125.5010   47.2403 C.3     140      M_A    0.0000
    983 O         178.9314  124.7080   46.3660 O.3     140      M_A    0.0000
    984 H         181.3046  124.0719   46.7647 H       140      M_A    0.0000
    985 H         180.9385  124.2333   48.4871 H       140      M_A    0.0000
    986 H         179.2001  125.7341   48.1725 H       140      M_A    0.0000
    987 H         179.9148  126.4608   46.7404 H       140      M_A    0.0000
    988 C         177.9963  123.9304   47.0856 C.3     141      M_A    0.0000
    989 C         177.0451  123.1758   46.1615 C.3     141      M_A    0.0000
    990 O         177.4783  121.8262   45.9914 O.3     141      M_A    0.0000
    991 H         178.5359  123.2423   47.7449 H       141      M_A    0.0000
    992 H         177.4121  124.6073   47.7196 H       141      M_A    0.0000
    993 H         176.0193  123.2199   46.5548 H       141      M_A    0.0000
    994 H         177.0141  123.6386   45.1672 H       141      M_A    0.0000
    995 C         177.1575  121.3383   44.7046 C.3     142      M_A    0.0000
    996 C         178.2125  120.3696   44.1784 C.3     142      M_A    0.0000
    997 O         177.6092  119.1357   43.7891 O.3     142      M_A    0.0000
    998 H         176.1694  120.8671   44.7372 H       142      M_A    0.0000
    999 H         177.0935  122.1961   44.0253 H       142      M_A    0.0000
   1000 H         178.7640  120.8259   43.3438 H       142      M_A    0.0000
   1001 H         178.9568  120.1418   44.9516 H       142      M_A    0.0000
   1002 C         178.4758  118.3698   42.9773 C.3     143      M_A    0.0000
   1003 C         178.9919  117.1288   43.6998 C.3     143      M_A    0.0000
   1004 O         179.1152  116.0353   42.7904 O.3     143      M_A    0.0000
   1005 H         177.9544  118.1006   42.0525 H       143      M_A    0.0000
   1006 H         179.3288  119.0019   42.7049 H       143      M_A    0.0000
   1007 H         179.9494  117.3480   44.1938 H       143      M_A    0.0000
   1008 H         178.2996  116.8200   44.4929 H       143      M_A    0.0000
   1009 C         180.4650  115.6521   42.6223 C.3     144      M_A    0.0000
   1010 C         180.6464  114.1392   42.7012 C.3     144      M_A    0.0000
   1011 O         181.4119  113.6684   41.5920 O.3     144      M_A    0.0000
   1012 H         180.8318  116.0450   41.6680 H       144      M_A    0.0000
   1013 H         181.0505  116.1216   43.4210 H       144      M_A    0.0000
   1014 H         181.1148  113.8625   43.6566 H       144      M_A    0.0000
   1015 H         179.6772  113.6256   42.6731 H       144      M_A    0.0000
   1016 C         182.3326  112.6711   41.9851 C.3     145      M_A    0.0000
   1017 C         182.2542  111.4343   41.0949 C.3     145      M_A    0.0000
   1018 O         183.5588  111.0392   40.6710 O.3     145      M_A    0.0000
   1019 H         183.3420  113.0960   41.9834 H       145      M_A    0.0000
   1020 H         182.0965  112.3818   43.0155 H       145      M_A    0.0000
   1021 H         181.7412  110.6181   41.6236 H       145      M_A    0.0000
   1022 H         181.6629  111.6366   40.1930 H       145      M_A    0.0000
   1023 C         183.6402  109.6411   40.4830 C.3     146      M_A    0.0000
   1024 C         182.4087  109.0843   39.7747 C.3     146      M_A    0.0000
   1025 O         182.7594  108.5726   38.4891 O.3     146      M_A    0.0000
   1026 H         184.5549  109.4079   39.9275 H       146      M_A    0.0000
   1027 H         183.7235  109.1726   41.4703 H       146      M_A    0.0000
   1028 H         181.9304  108.3129   40.3953 H       146      M_A    0.0000
   1029 H         181.6558  109.8677   39.6223 H       146      M_A    0.0000
   1030 C         182.1110  107.3447   38.2267 C.3     147      M_A    0.0000
   1031 C         181.5521  107.2822   36.8083 C.3     147      M_A    0.0000
   1032 O         181.5256  105.9340   36.3398 O.3     147      M_A    0.0000
   1033 H         182.8119  106.5237   38.4119 H       147      M_A    0.0000
   1034 H         181.2840  107.2414   38.9385 H       147      M_A    0.0000
   1035 H         180.5517  107.7371   36.7742 H       147      M_A    0.0000
   1036 H         182.1766  107.8588   36.1145 H       147      M_A    0.0000
   1037 C         181.5022  105.0141   37.4122 C.3     148      M_A    0.0000
   1038 C         180.4887  103.8958   37.1875 C.3     148      M_A    0.0000
   1039 O         181.1443  102.6286   37.1386 O.3     148      M_A    0.0000
   1040 H         182.5098  104.6108   37.5591 H       148      M_A    0.0000
   1041 H         181.2291  105.5627   38.3209 H       148      M_A    0.0000
   1042 H         179.7190  103.9179   37.9723 H       148      M_A    0.0000
   1043 H         179.9612  104.0298   36.2348 H       148      M_A    0.0000
   1044 C         180.2459  101.5947   36.7912 C.3     149      M_A    0.0000
   1045 C         180.9566  100.4106   36.1422 C.3     149      M_A    0.0000
   1046 O         180.3121   99.1863   36.4935 O.3     149      M_A    0.0000
   1047 H         179.6959  101.2836   37.6858 H       149      M_A    0.0000
   1048 H         179.5188  102.0045   36.0809 H       149      M_A    0.0000
   1049 H         180.9959  100.5431   35.0514 H       149      M_A    0.0000
   1050 H         181.9976  100.3433   36.4820 H       149      M_A    0.0000
   1051 C         180.7058   98.1311   35.6401 C.3     150      M_A    0.0000
   1052 C         180.1639   96.7830   36.1061 C.3     150      M_A    0.0000
   1053 O         180.0655   95.8764   35.0079 O.3     150      M_A    0.0000
   1054 H         180.3798   98.3566   34.6191 H       150      M_A    0.0000
   1055 H         181.8011   98.0910   35.6369 H       150      M_A    0.0000
   1056 H         180.7985   96.3749   36.9060 H       150      M_A    0.0000
   1057 H         179.1595   96.8905   36.5344 H       150      M_A    0.0000
   1058 C         181.1978   95.0346   34.9291 C.3     151      M_A    0.0000
   1059 C         180.8583   93.6695   34.3380 C.3     151      M_A    0.0000
   1060 O         181.9464   93.1785   33.5551 O.3     151      M_A    0.0000
   1061 H         181.9760   95.5362   34.3440 H       151      M_A    0.0000
   1062 H         181.5851   94.8947   35.9448 H       151      M_A    0.0000
   1063 H         180.5919   92.9648   35.1388 H       151      M_A    0.0000
   1064 H         179.9827   93.7334   33.6799 H       151      M_A    0.0000
   1065 C         181.6986   91.8674   33.0898 C.3     152      M_A    0.0000
   1066 C         182.9698   91.1840   32.5947 C.3     152      M_A    0.0000
   1067 O         182.9404   89.7900   32.9009 O.3     152      M_A    0.0000
   1068 H         181.2241   91.2883   33.8891 H       152      M_A    0.0000
   1069 H         180.9854   91.9334   32.2601 H       152      M_A    0.0000
   1070 H         183.0964   91.3538   31.5158 H       152      M_A    0.0000
   1071 H         183.8579   91.6082   33.0797 H       152      M_A    0.0000
   1072 C         182.1837   89.0677   31.9509 C.3     153      M_A    0.0000
   1073 C         183.0449   88.0955   31.1501 C.3     153      M_A    0.0000
   1074 O         182.9884   86.7888   31.7220 O.3     153      M_A    0.0000
   1075 H         181.3705   88.5442   32.4650 H       153      M_A    0.0000
   1076 H         181.7299   89.7896   31.2622 H       153      M_A    0.0000
   1077 H         182.7271   88.0854   30.0975 H       153      M_A    0.0000
   1078 H         184.0962   88.4096   31.1515 H       153      M_A    0.0000
   1079 C         184.0001   85.9516   31.2001 C.3     154      M_A    0.0000
   1080 C         184.5586   85.0002   32.2542 C.3     154      M_A    0.0000
   1081 O         184.9086   83.7486   31.6636 O.3     154      M_A    0.0000
   1082 H         183.6005   85.4004   30.3422 H       154      M_A    0.0000
   1083 H         184.8115   86.5912   30.8343 H       154      M_A    0.0000
   1084 H         185.4204   85.4584   32.7605 H       154      M_A    0.0000
   1085 H         183.8143   84.7985   33.0347 H       154      M_A    0.0000
   1086 C         186.3075   83.6231   31.5085 C.3     155      M_A    0.0000
   1087 C         186.8415   82.3377   32.1337 C.3     155      M_A    0.0000
   1088 O         187.4525   81.5143   31.1404 O.3     155      M_A    0.0000
   1089 H         186.5552   83.6770   30.4430 H       155      M_A    0.0000
   1090 H         186.7796   84.4802   32.0022 H       155      M_A    0.0000
   1091 H         187.5448   82.5741   32.9451 H       155      M_A    0.0000
   1092 H         186.0302   81.7561   32.5889 H       155      M_A    0.0000
   1093 C         188.1798   80.4528   31.7245 C.3     156      M_A    0.0000
   1094 C         188.1599   79.1976   30.8571 C.3     156      M_A    0.0000
   1095 O         189.4283   78.5437   30.8939 O.3     156      M_A    0.0000
   1096 H         189.2058   80.7850   31.9155 H       156      M_A    0.0000
   1097 H         187.7205   80.2221   32.6925 H       156      M_A    0.0000
   1098 H         187.3534   78.5246   31.1819 H       156      M_A    0.0000
   1099 H         187.9494   79.4476   29.8097 H       156      M_A    0.0000
   1100 C         189.3409   77.2806   31.5215 C.3     157      M_A    0.0000
   1101 C         190.4239   76.3219   31.0355 C.3     157      M_A    0.0000
   1102 O         191.3848   76.0888   32.0651 O.3     157      M_A    0.0000
   1103 H         189.3916   77.4166   32.6070 H       157      M_A    0.0000
   1104 H         188.3588   76.8546   31.2863 H       157      M_A    0.0000
   1105 H         189.9711   75.3811   30.6908 H       157      M_A    0.0000
   1106 H         190.9601   76.7394   30.1742 H       157      M_A    0.0000
   1107 C         192.1776   74.9531   31.7852 C.3     158      M_A    0.0000
   1108 C         193.5790   75.3326   31.3158 C.3     158      M_A    0.0000
   1109 O         194.5588   74.5093   31.9483 O.3     158      M_A    0.0000
   1110 H         192.2179   74.3170   32.6760 H       158      M_A    0.0000
   1111 H         191.6807   74.3822   30.9925 H       158      M_A    0.0000
   1112 H         193.6443   75.2623   30.2205 H       158      M_A    0.0000
   1113 H         193.8102   76.3741   31.5720 H       158      M_A    0.0000
   1114 C         195.6473   74.2459   31.0865 C.3     159      M_A    0.0000
   1115 C         196.9895   74.3765   31.8005 C.3     159      M_A    0.0000
   1116 O         197.8917   73.3620   31.3595 O.3     159      M_A    0.0000
   1117 H         195.5260   73.2477   30.6524 H       159      M_A    0.0000
   1118 H         195.6103   74.9711   30.2656 H       159      M_A    0.0000
   1119 H         197.4080   75.3807   31.6410 H       159      M_A    0.0000
   1120 H         196.8701   74.2611   32.8850 H       159      M_A    0.0000
   1121 C         199.0730   73.3477   32.1349 C.3     160      M_A    0.0000
   1122 C         200.3144   73.0919   31.2853 C.3     160      M_A    0.0000
   1123 O         201.4758   73.6223   31.9239 O.3     160      M_A    0.0000
   1124 H         199.1547   74.2947   32.6790 H       160      M_A    0.0000
   1125 H         198.9796   72.5462   32.8766 H       160      M_A    0.0000
   1126 H         200.4233   72.0160   31.0869 H       160      M_A    0.0000
   1127 H         200.2269   73.5785   30.3059 H       160      M_A    0.0000
   1128 C         201.8916   72.8073   33.0008 C.3     161      M_A    0.0000
   1129 C         202.3813   71.4408   32.5310 C.3     161      M_A    0.0000
   1130 O         203.7920   71.4623   32.3132 O.3     161      M_A    0.0000
   1131 H         202.6683   73.3323   33.5671 H       161      M_A    0.0000
   1132 H         201.0333   72.6663   33.6677 H       161      M_A    0.0000
   1133 H         202.1009   70.6661   33.2592 H       161      M_A    0.0000
   1134 H         201.9069   71.1584   31.5828 H       161      M_A    0.0000
   1135 C         204.2398   70.2681   31.7049 C.3     162      M_A    0.0000
   1136 C         203.7717   70.1506   30.2574 C.3     162      M_A    0.0000
   1137 O         204.6820   69.3532   29.5002 O.3     162      M_A    0.0000
   1138 H         205.3319   70.2204   31.7723 H       162      M_A    0.0000
   1139 H         203.8352   69.4258   32.2778 H       162      M_A    0.0000
   1140 H         202.7529   69.7387   30.2202 H       162      M_A    0.0000
   1141 H         203.7228   71.1369   29.7793 H       162      M_A    0.0000
   1142 C         205.0249   68.1667   30.1867 C.3     163      M_A    0.0000
   1143 C         204.5019   66.9212   29.4772 C.3     163      M_A    0.0000
   1144 O         205.4138   65.8345   29.6361 O.3     163      M_A    0.0000
   1145 H         206.1127   68.1253   30.3075 H       163      M_A    0.0000
   1146 H         204.5819   68.2167   31.1880 H       163      M_A    0.0000
   1147 H         203.5017   66.6621   29.8532 H       163      M_A    0.0000
   1148 H         204.3893   67.1009   28.4007 H       163      M_A    0.0000
   1149 C         205.3778   64.9623   28.5249 C.3     164      M_A    0.0000
   1150 C         206.0826   63.6394   28.8103 C.3     164      M_A    0.0000
   1151 O         205.2363   62.5393   28.4767 O.3     164      M_A    0.0000
   1152 H         204.3351   64.7995   28.2320 H       164      M_A    0.0000
   1153 H         205.8830   65.4601   27.6893 H       164      M_A    0.0000
   1154 H         207.0352   63.5913   28.2634 H       164      M_A    0.0000
   1155 H         206.3335   63.5499   29.8747 H       164      M_A    0.0000
   1156 C         205.9754   61.3438   28.3308 C.3     165      M_A    0.0000
   1157 C         207.0623   61.2075   29.3930 C.3     165      M_A    0.0000
   1158 O         207.4939   59.8507   29.4963 O.3     165      M_A    0.0000
   1159 H         205.2869   60.4924   28.3582 H       165      M_A    0.0000
   1160 H         206.4464   61.3574   27.3413 H       165      M_A    0.0000
   1161 H         207.9029   61.8782   29.1640 H       165      M_A    0.0000
   1162 H         206.6875   61.5089   30.3792 H       165      M_A    0.0000
   1163 C         207.9993   59.3737   28.2659 C.3     166      M_A    0.0000
   1164 C         209.1496   58.3902   28.4603 C.3     166      M_A    0.0000
   1165 O         208.8040   57.1067   27.9397 O.3     166      M_A    0.0000
   1166 H         207.1821   58.9186   27.6962 H       166      M_A    0.0000
   1167 H         208.3624   60.2353   27.6940 H       166      M_A    0.0000
   1168 H         210.0647   58.7789   27.9909 H       166      M_A    0.0000
   1169 H         209.3803   58.2615   29.5252 H       166      M_A    0.0000
   1170 C         209.9330   56.2609   27.8573 C.3     167      M_A    0.0000
   1171 C         209.5521   54.7855   27.9363 C.3     167      M_A    0.0000
   1172 O         209.4227   54.2312   26.6271 O.3     167      M_A    0.0000
   1173 H         210.4767   56.4797   26.9320 H       167      M_A    0.0000
   1174 H         210.5962   56.5012   28.6961 H       167      M_A    0.0000
   1175 H         210.2929   54.2337   28.5327 H       167      M_A    0.0000
   1176 H         208.5886   54.6555   28.4447 H       167      M_A    0.0000
   1177 C         208.7601   52.9834   26.6569 C.3     168      M_A    0.0000
   1178 C         207.7601   52.8370   25.5138 C.3     168      M_A    0.0000
   1179 O         207.5643   51.4597   25.1934 O.3     168      M_A    0.0000
   1180 H         209.5062   52.1819   26.6345 H       168      M_A    0.0000
   1181 H         208.2230   52.9097   27.6094 H       168      M_A    0.0000
   1182 H         206.8104   53.3255   25.7754 H       168      M_A    0.0000
   1183 H         208.1241   53.3366   24.6073 H       168      M_A    0.0000
   1184 C         208.7065   50.9057   24.5727 C.3     169      M_A    0.0000
   1185 C         209.2689   49.7231   25.3560 C.3     169      M_A    0.0000
   1186 O         208.6255   48.5110   24.9629 O.3     169      M_A    0.0000
   1187 H         208.4510   50.6154   23.5480 H       169      M_A    0.0000
   1188 H         209.4715   51.6884   24.5146 H       169      M_A    0.0000
   1189 H         210.3580   49.6605   25.2187 H       169      M_A    0.0000
   1190 H         209.1009   49.8499   26.4328 H       169      M_A    0.0000
   1191 C         208.5409   47.5980   26.0382 C.3     170      M_A    0.0000
   1192 C         208.1262   46.2041   25.5766 C.3     170      M_A    0.0000
   1193 O         209.2570   45.3338   25.5342 O.3     170      M_A    0.0000
   1194 H         209.5030   47.5714   26.5609 H       170      M_A    0.0000
   1195 H         207.7912   47.9758   26.7428 H       170      M_A    0.0000
   1196 H         207.3392   45.8055   26.2329 H       170      M_A    0.0000
   1197 H         207.6983   46.2360   24.5668 H       170      M_A    0.0000
   1198 C         208.9123   44.0187   25.9195 C.3     171      M_A    0.0000
   1199 C         209.4129   42.9783   24.9220 C.3     171      M_A    0.0000
   1200 O         210.3949   42.1370   25.5267 O.3     171      M_A    0.0000
   1201 H         209.3060   43.8256   26.9231 H       171      M_A    0.0000
   1202 H         207.8193   43.9594   25.9753 H       171      M_A    0.0000
   1203 H         208.5696   42.3912   24.5307 H       171      M_A    0.0000
   1204 H         209.8818   43.4597   24.0547 H       171      M_A    0.0000
   1205 C         210.3599   40.8312   24.9878 C.3     172      M_A    0.0000
   1206 C         210.2179   40.8406   23.4686 C.3     172      M_A    0.0000
   1207 O         210.7940   39.6624   22.9048 O.3     172      M_A    0.0000
   1208 H         211.2619   40.2926   25.2972 H       172      M_A    0.0000
   1209 H         209.4981   40.3107   25.4212 H       172      M_A    0.0000
   1210 H         209.1600   40.9426   23.1870 H       172      M_A    0.0000
   1211 H         210.7376   41.7021   23.0311 H       172      M_A    0.0000
   1212 C         210.7458   38.5788   23.8105 C.3     173      M_A    0.0000
   1213 C         210.3969   37.2655   23.1164 C.3     173      M_A    0.0000
   1214 O         211.3998   36.2823   23.3723 O.3     173      M_A    0.0000
   1215 H         211.7056   38.5069   24.3331 H       173      M_A    0.0000
   1216 H         209.9764   38.7993   24.5593 H       173      M_A    0.0000
   1217 H         209.4048   36.9179   23.4385 H       173      M_A    0.0000
   1218 H         210.3383   37.3996   22.0291 H       173      M_A    0.0000
   1219 C         211.2549   35.1624   22.5228 C.3     174      M_A    0.0000
   1220 C         212.5756   34.4285   22.3102 C.3     174      M_A    0.0000
   1221 O         212.7109   33.3600   23.2471 O.3     174      M_A    0.0000
   1222 H         210.4938   34.4940   22.9393 H       174      M_A    0.0000
   1223 H         210.8879   35.5197   21.5538 H       174      M_A    0.0000
   1224 H         212.6448   34.0638   21.2751 H       174      M_A    0.0000
   1225 H         213.4280   35.1036   22.4566 H       174      M_A    0.0000
   1226 C         213.5736   32.3518   22.7609 C.3     175      M_A    0.0000
   1227 C         214.7965   32.1630   23.6536 C.3     175      M_A    0.0000
   1228 O         215.0323   30.7754   23.8925 O.3     175      M_A    0.0000
   1229 H         213.0104   31.4180   22.6592 H       175      M_A    0.0000
   1230 H         213.9076   32.6481   21.7600 H       175      M_A    0.0000
   1231 H         215.6747   32.6458   23.2014 H       175      M_A    0.0000
   1232 H         214.6487   32.6437   24.6287 H       175      M_A    0.0000
   1233 C         214.8809   30.0143   22.7115 C.3     176      M_A    0.0000
   1234 C         215.9831   28.9707   22.5558 C.3     176      M_A    0.0000
   1235 O         215.5528   27.7085   23.0651 O.3     176      M_A    0.0000
   1236 H         213.8907   29.5463   22.7125 H       176      M_A    0.0000
   1237 H         214.9213   30.7025   21.8595 H       176      M_A    0.0000
   1238 H         216.2870   28.8941   21.5019 H       176      M_A    0.0000
   1239 H         216.8811   29.2618   23.1149 H       176      M_A    0.0000
   1240 C         216.3859   26.6587   22.6169 C.3     177      M_A    0.0000
   1241 C         216.9980   25.8768   23.7754 C.3     177      M_A    0.0000
   1242 O         216.8818   24.4723   23.5480 O.3     177      M_A    0.0000
   1243 H         215.8091   26.0015   21.9574 H       177      M_A    0.0000
   1244 H         217.1932   27.1001   22.0213 H       177      M_A    0.0000
   1245 H         218.0468   26.1730   23.9210 H       177      M_A    0.0000
   1246 H         216.4810   26.1010   24.7168 H       177      M_A    0.0000
   1247 C         217.2270   24.1330   22.2204 C.3     178      M_A    0.0000
   1248 C         216.0215   24.1723   21.2858 C.3     178      M_A    0.0000
   1249 O         215.9857   25.4050   20.5667 O.3     178      M_A    0.0000
   1250 H         218.0181   24.8064   21.8736 H       178      M_A    0.0000
   1251 H         217.6367   23.1165   22.2280 H       178      M_A    0.0000
   1252 H         216.0428   23.3112   20.6025 H       178      M_A    0.0000
   1253 H         215.0842   24.0943   21.8507 H       178      M_A    0.0000
   1254 C         214.7811   25.5460   19.8415 C.3     179      M_A    0.0000
   1255 C         213.5817   25.7673   20.7583 C.3     179      M_A    0.0000
   1256 O         213.2547   27.1552   20.8285 O.3     179      M_A    0.0000
   1257 H         214.8888   26.3682   19.1260 H       179      M_A    0.0000
   1258 H         214.6236   24.6256   19.2676 H       179      M_A    0.0000
   1259 H         212.7246   25.1716   20.4125 H       179      M_A    0.0000
   1260 H         213.8001   25.4293   21.7790 H       179      M_A    0.0000
   1261 C         213.2224   27.6120   22.1653 C.3     180      M_A    0.0000
   1262 C         213.5036   29.1082   22.2677 C.3     180      M_A    0.0000
   1263 O         212.2902   29.8535   22.1673 O.3     180      M_A    0.0000
   1264 H         212.2513   27.3613   22.6052 H       180      M_A    0.0000
   1265 H         213.9908   27.0677   22.7262 H       180      M_A    0.0000
   1266 H         214.0336   29.3315   23.2048 H       180      M_A    0.0000
   1267 H         214.1614   29.4406   21.4550 H       180      M_A    0.0000
   1268 C         211.8587   30.3120   23.4324 C.3     181      M_A    0.0000
   1269 C         211.3999   31.7667   23.3900 C.3     181      M_A    0.0000
   1270 O         210.1037   31.8657   22.8003 O.3     181      M_A    0.0000
   1271 H         211.0607   29.6564   23.7971 H       181      M_A    0.0000
   1272 H         212.7018   30.2263   24.1275 H       181      M_A    0.0000
   1273 H         211.4133   32.1984   24.4011 H       181      M_A    0.0000
   1274 H         212.0832   32.3763   22.7857 H       181      M_A    0.0000
   1275 C         210.0703   32.8501   21.7870 C.3     182      M_A    0.0000
   1276 C         211.2960   32.7832   20.8808 C.3     182      M_A    0.0000
   1277 O         211.0182   31.9998   19.7203 O.3     182      M_A    0.0000
   1278 H         209.1458   32.7382   21.2105 H       182      M_A    0.0000
   1279 H         210.0414   33.8324   22.2724 H       182      M_A    0.0000
   1280 H         211.6235   33.7972   20.6098 H       182      M_A    0.0000
   1281 H         212.1420   32.3144   21.3988 H       182      M_A    0.0000
   1282 C         210.5324   32.7989   18.6609 C.3     183      M_A    0.0000
   1283 C         211.4037   34.0287   18.4232 C.3     183      M_A    0.0000
   1284 O         210.7665   34.9253   17.5133 O.3     183      M_A    0.0000
   1285 H         210.4580   32.1862   17.7561 H       183      M_A    0.0000
   1286 H         209.5200   33.1270   18.9232 H       183      M_A    0.0000
   1287 H         211.6311   34.5232   19.3786 H       183      M_A    0.0000
   1288 H         212.3692   33.7469   17.9847 H       183      M_A    0.0000
   1289 C         210.2595   36.0640   18.1790 C.3     184      M_A    0.0000
   1290 C         211.3717   36.9317   18.7606 C.3     184      M_A    0.0000
   1291 O         211.3110   38.2517   18.2206 O.3     184      M_A    0.0000
   1292 H         209.6348   36.6355   17.4843 H       184      M_A    0.0000
   1293 H         209.6158   35.7181   18.9959 H       184      M_A    0.0000
   1294 H         211.3078   36.9453   19.8582 H       184      M_A    0.0000
   1295 H         212.3591   36.5212   18.5147 H       184      M_A    0.0000
   1296 C         212.4352   39.0186   18.6013 C.3     185      M_A    0.0000
   1297 C         212.0775   40.4826   18.8397 C.3     185      M_A    0.0000
   1298 O         212.5012   40.8963   20.1386 O.3     185      M_A    0.0000
   1299 H         212.8870   38.5718   19.4934 H       185      M_A    0.0000
   1300 H         213.1722   38.9608   17.7922 H       185      M_A    0.0000
   1301 H         212.5191   41.1137   18.0551 H       185      M_A    0.0000
   1302 H         210.9925   40.6357   18.7838 H       185      M_A    0.0000
   1303 C         211.6140   41.8455   20.6942 C.3     186      M_A    0.0000
   1304 C         212.2057   43.2519   20.6967 C.3     186      M_A    0.0000
   1305 O         211.4700   44.1059   19.8208 O.3     186      M_A    0.0000
   1306 H         210.6679   41.8156   20.1432 H       186      M_A    0.0000
   1307 H         211.4051   41.5469   21.7279 H       186      M_A    0.0000
   1308 H         212.2278   43.6525   21.7204 H       186      M_A    0.0000
   1309 H         213.2458   43.2408   20.3477 H       186      M_A    0.0000
   1310 C         210.0789   43.8818   19.9276 C.3     187      M_A    0.0000
   1311 C         209.3526   45.0684   20.5541 C.3     187      M_A    0.0000
   1312 O         208.1812   45.3908   19.8045 O.3     187      M_A    0.0000
   1313 H         209.6768   43.6513   18.9353 H       187      M_A    0.0000
   1314 H         209.9273   42.9994   20.5598 H       187      M_A    0.0000
   1315 H         209.1085   44.8526   21.6043 H       187      M_A    0.0000
   1316 H         209.9923   45.9598   20.5635 H       187      M_A    0.0000
   1317 C         207.3651   46.3165   20.4929 C.3     188      M_A    0.0000
   1318 C         206.9476   47.4851   19.6051 C.3     188      M_A    0.0000
   1319 O         205.6745   47.9897   20.0079 O.3     188      M_A    0.0000
   1320 H         206.4909   45.7929   20.8942 H       188      M_A    0.0000
   1321 H         207.9383   46.7041   21.3429 H       188      M_A    0.0000
   1322 H         207.7151   48.2721   19.6279 H       188      M_A    0.0000
   1323 H         206.8599   47.1706   18.5577 H       188      M_A    0.0000
   1324 C         205.7910   48.8684   21.1085 C.3     189      M_A    0.0000
   1325 C         205.9226   50.3239   20.6697 C.3     189      M_A    0.0000
   1326 O         204.6356   50.9316   20.5592 O.3     189      M_A    0.0000
   1327 H         204.9278   48.7310   21.7684 H       189      M_A    0.0000
   1328 H         206.6875   48.5856   21.6720 H       189      M_A    0.0000
   1329 H         206.5661   50.8748   21.3706 H       189      M_A    0.0000
   1330 H         206.4052   50.3955   19.6870 H       189      M_A    0.0000
   1331 C         204.7189   52.2176   19.9796 C.3     190      M_A    0.0000
   1332 C         203.4767   52.5608   19.1627 C.3     190      M_A    0.0000
   1333 O         203.0569   53.8991   19.4285 O.3     190      M_A    0.0000
   1334 H         204.8881   52.9559   20.7708 H       190      M_A    0.0000
   1335 H         205.5933   52.2335   19.3190 H       190      M_A    0.0000
   1336 H         203.6730   52.4086   18.0916 H       190      M_A    0.0000
   1337 H         202.6418   51.8973   19.4203 H       190      M_A    0.0000
   1338 C         203.5885   54.8053   18.4836 C.3     191      M_A    0.0000
   1339 C         202.5795   55.8791   18.0872 C.3     191      M_A    0.0000
   1340 O         202.9109   57.1267   18.6966 O.3     191      M_A    0.0000
   1341 H         204.5015   55.2521   18.8913 H       191      M_A    0.0000
   1342 H         203.8687   54.2352   17.5905 H       191      M_A    0.0000
   1343 H         202.5315   55.9691   16.9924 H       191      M_A    0.0000
   1344 H         201.5689   55.6098   18.4187 H       191      M_A    0.0000
   1345 C         201.8351   58.0401   18.6235 C.3     192      M_A    0.0000
   1346 C         202.2750   59.4703   18.9219 C.3     192      M_A    0.0000
   1347 O         201.5084   60.3998   18.1562 O.3     192      M_A    0.0000
   1348 H         201.3714   57.9675   17.6339 H       192      M_A    0.0000
   1349 H         201.0856   57.7379   19.3638 H       192      M_A    0.0000
   1350 H         202.1928   59.6757   19.9990 H       192      M_A    0.0000
   1351 H         203.3298   59.6196   18.6594 H       192      M_A    0.0000
   1352 C         200.4484   60.9452   18.9152 C.3     193      M_A    0.0000
   1353 C         200.3163   62.4523   18.7166 C.3     193      M_A    0.0000
   1354 O         199.0222   62.7787   18.2100 O.3     193      M_A    0.0000
   1355 H         199.5188   60.4289   18.6531 H       193      M_A    0.0000
   1356 H         200.6528   60.7435   19.9729 H       193      M_A    0.0000
   1357 H         200.5210   62.9787   19.6600 H       193      M_A    0.0000
   1358 H         201.0546   62.8191   17.9927 H       193      M_A    0.0000
   1359 C         198.9729   64.1091   17.7360 C.3     194      M_A    0.0000
   1360 C         197.7683   64.8692   18.2831 C.3     194      M_A    0.0000
   1361 O         198.0552   66.2648   18.3716 O.3     194      M_A    0.0000
   1362 H         199.9096   64.6150   17.9931 H       194      M_A    0.0000
   1363 H         198.9039   64.0749   16.6427 H       194      M_A    0.0000
   1364 H         196.8846   64.6816   17.6562 H       194      M_A    0.0000
   1365 H         197.5100   64.5223   19.2914 H       194      M_A    0.0000
   1366 C         197.4904   66.9786   17.2907 C.3     195      M_A    0.0000
   1367 C         196.9025   68.3161   17.7306 C.3     195      M_A    0.0000
   1368 O         197.2830   69.3521   16.8251 O.3     195      M_A    0.0000
   1369 H         198.2528   67.1173   16.5167 H       195      M_A    0.0000
   1370 H         196.6908   66.3637   16.8620 H       195      M_A    0.0000
   1371 H         195.8088   68.2406   17.8151 H       195      M_A    0.0000
   1372 H         197.2695   68.5981   18.7254 H       195      M_A    0.0000
   1373 C         197.1899   70.6264   17.4286 C.3     196      M_A    0.0000
   1374 C         196.4099   71.6145   16.5662 C.3     196      M_A    0.0000
   1375 O         195.6226   72.4798   17.3842 O.3     196      M_A    0.0000
   1376 H         196.7341   70.5205   18.4188 H       196      M_A    0.0000
   1377 H         198.2078   71.0069   17.5712 H       196      M_A    0.0000
   1378 H         197.0982   72.1856   15.9267 H       196      M_A    0.0000
   1379 H         195.7248   71.0891   15.8893 H       196      M_A    0.0000
   1380 C         194.6235   73.1363   16.6307 C.3     197      M_A    0.0000
   1381 C         194.3878   74.5651   17.1113 C.3     197      M_A    0.0000
   1382 O         194.3309   75.4630   16.0030 O.3     197      M_A    0.0000
   1383 H         194.9034   73.1165   15.5720 H       197      M_A    0.0000
   1384 H         193.6925   72.5680   16.7380 H       197      M_A    0.0000
   1385 H         193.4700   74.6160   17.7147 H       197      M_A    0.0000
   1386 H         195.2041   74.8996   17.7636 H       197      M_A    0.0000
   1387 C         193.6447   76.6527   16.3359 C.3     198      M_A    0.0000
   1388 C         194.4193   77.8987   15.9167 C.3     198      M_A    0.0000
   1389 O         193.5222   78.9359   15.5202 O.3     198      M_A    0.0000
   1390 H         192.6506   76.6322   15.8768 H       198      M_A    0.0000
   1391 H         193.5074   76.6696   17.4231 H       198      M_A    0.0000
   1392 H         195.0769   78.2294   16.7335 H       198      M_A    0.0000
   1393 H         195.0732   77.6854   15.0619 H       198      M_A    0.0000
   1394 C         193.0097   79.6318   16.6382 C.3     199      M_A    0.0000
   1395 C         192.7954   81.1135   16.3434 C.3     199      M_A    0.0000
   1396 O         191.4068   81.4395   16.4010 O.3     199      M_A    0.0000
   1397 H         192.0782   79.1541   16.9602 H       199      M_A    0.0000
   1398 H         193.7324   79.5340   17.4564 H       199      M_A    0.0000
   1399 H         193.3798   81.7280   17.0432 H       199      M_A    0.0000
   1400 H         193.1515   81.3691   15.3376 H       199      M_A    0.0000
   1401 C         191.1075   82.5693   15.6067 C.3     200      M_A    0.0000
   1402 C         190.4724   83.6921   16.4217 C.3     200      M_A    0.0000
   1403 O         190.7959   84.9636   15.8591 O.3     200      M_A    0.0000
   1404 H         192.0225   82.9099   15.1105 H       200      M_A    0.0000
   1405 H         190.4042   82.2560   14.8265 H       200      M_A    0.0000
   1406 H         189.3842   83.5474   16.4835 H       200      M_A    0.0000
   1407 H         190.8431   83.6858   17.4543 H       200      M_A    0.0000
   1408 C         189.7370   85.8853   16.0208 C.3     201      M_A    0.0000
   1409 C         190.1173   87.2853   15.5482 C.3     201      M_A    0.0000
   1410 O         188.9786   87.9591   15.0121 O.3     201      M_A    0.0000
   1411 H         188.8554   85.5139   15.4875 H       201      M_A    0.0000
   1412 H         189.4863   85.9269   17.0870 H       201      M_A    0.0000
   1413 H         190.5673   87.8554   16.3737 H       201      M_A    0.0000
   1414 H         190.8751   87.2400   14.7561 H       201      M_A    0.0000
   1415 C         187.8736   87.8858   15.8899 C.3     202      M_A    0.0000
   1416 C         187.5455   89.2389   16.5140 C.3     202      M_A    0.0000
   1417 O         186.7695   90.0302   15.6142 O.3     202      M_A    0.0000
   1418 H         187.0124   87.4815   15.3473 H       202      M_A    0.0000
   1419 H         188.1240   87.1783   16.6886 H       202      M_A    0.0000
   1420 H         187.0261   89.0986   17.4729 H       202      M_A    0.0000
   1421 H         188.4612   89.7999   16.7389 H       202      M_A    0.0000
   1422 C         187.1968   91.3772   15.6097 C.3     203      M_A    0.0000
   1423 C         187.0243   92.0297   14.2413 C.3     203      M_A    0.0000
   1424 O         186.4555   93.3321   14.3760 O.3     203      M_A    0.0000
   1425 H         186.6498   91.9282   16.3822 H       203      M_A    0.0000
   1426 H         188.2590   91.3947   15.8795 H       203      M_A    0.0000
   1427 H         187.9886   92.0670   13.7144 H       203      M_A    0.0000
   1428 H         186.3496   91.4405   13.6077 H       203      M_A    0.0000
   1429 C         187.2086   94.1363   15.2608 C.3     204      M_A    0.0000
   1430 C         187.3198   95.5778   14.7730 C.3     204      M_A    0.0000
   1431 O         186.2195   96.3532   15.2483 O.3     204      M_A    0.0000
   1432 H         186.7572   94.0901   16.2576 H       204      M_A    0.0000
   1433 H         188.2147   93.7076   15.3324 H       204      M_A    0.0000
   1434 H         188.2800   96.0117   15.0870 H       204      M_A    0.0000
   1435 H         187.3047   95.6235   13.6769 H       204      M_A    0.0000
   1436 C         186.1090   97.5767   14.5497 C.3     205      M_A    0.0000
   1437 C         184.6776   97.8537   14.0998 C.3     205      M_A    0.0000
   1438 O         184.3400   99.2232   14.3197 O.3     205      M_A    0.0000
   1439 H         186.4876   98.3856   15.1836 H       205      M_A    0.0000
   1440 H         186.7538   97.5192   13.6653 H       205      M_A    0.0000
   1441 H         184.5511   97.5752   13.0437 H       205      M_A    0.0000
   1442 H         183.9629   97.2441   14.6668 H       205      M_A    0.0000
   1443 C         182.9673   99.4619   14.0836 C.3     206      M_A    0.0000
   1444 C         182.5861  100.9176   14.3356 C.3     206      M_A    0.0000
   1445 O         182.5654  101.6489   13.1098 O.3     206      M_A    0.0000
   1446 H         182.7232   99.1609   13.0592 H       206      M_A    0.0000
   1447 H         182.3923   98.8221   14.7629 H       206      M_A    0.0000
   1448 H         181.6159  100.9723   14.8502 H       206      M_A    0.0000
   1449 H         183.3134  101.4051   14.9968 H       206      M_A    0.0000
   1450 C         183.2396  102.8847   13.2333 C.3     207      M_A    0.0000
   1451 C         182.3741  104.0583   12.7841 C.3     207      M_A    0.0000
   1452 O         182.4565  105.1296   13.7240 O.3     207      M_A    0.0000
   1453 H         183.5684  103.0103   14.2705 H       207      M_A    0.0000
   1454 H         184.1360  102.8439   12.6041 H       207      M_A    0.0000
   1455 H         182.6716  104.3857   11.7775 H       207      M_A    0.0000
   1456 H         181.3195  103.7639   12.7132 H       207      M_A    0.0000
   1457 C         181.2897  105.9265   13.7035 C.3     208      M_A    0.0000
   1458 C         181.6074  107.4044   13.4958 C.3     208      M_A    0.0000
   1459 O         180.5996  108.0256   12.6982 O.3     208      M_A    0.0000
   1460 H         180.6160  105.5537   12.9247 H       208      M_A    0.0000
   1461 H         180.7818  105.8051   14.6672 H       208      M_A    0.0000
   1462 H         181.7167  107.9091   14.4665 H       208      M_A    0.0000
   1463 H         182.5639  107.5306   12.9735 H       208      M_A    0.0000
   1464 C         181.1079  109.1458   12.0027 C.3     209      M_A    0.0000
   1465 C         180.0530  110.2322   11.8150 C.3     209      M_A    0.0000
   1466 O         180.3960  111.3976   12.5647 O.3     209      M_A    0.0000
   1467 H         181.9822  109.5319   12.5376 H       209      M_A    0.0000
   1468 H         181.4459  108.8057   11.0171 H       209      M_A    0.0000
   1469 H         179.9335  110.4646   10.7470 H       209      M_A    0.0000
   1470 H         179.0716  109.8916   12.1679 H       209      M_A    0.0000
   1471 C         179.3484  112.3459   12.5546 C.3     210      M_A    0.0000
   1472 C         179.8699  113.7766   12.4583 C.3     210      M_A    0.0000
   1473 O         178.9360  114.6041   11.7649 O.3     210      M_A    0.0000
   1474 H         178.6671  112.1170   11.7281 H       210      M_A    0.0000
   1475 H         178.7852  112.2359   13.4884 H       210      M_A    0.0000
   1476 H         180.0849  114.1705   13.4620 H       210      M_A    0.0000
   1477 H         180.8160  113.8131   11.9038 H       210      M_A    0.0000
   1478 C         178.8837  114.2848   10.3893 C.3     211      M_A    0.0000
   1479 C         177.5963  114.7766    9.7343 C.3     211      M_A    0.0000
   1480 O         177.6776  116.1749    9.4586 O.3     211      M_A    0.0000
   1481 H         179.7651  114.7029    9.8917 H       211      M_A    0.0000
   1482 H         178.9355  113.1941   10.2944 H       211      M_A    0.0000
   1483 H         177.3911  114.2002    8.8208 H       211      M_A    0.0000
   1484 H         176.7351  114.6218   10.3962 H       211      M_A    0.0000
   1485 C         177.4024  116.9460   10.6103 C.3     212      M_A    0.0000
   1486 C         177.1711  118.4165   10.2749 C.3     212      M_A    0.0000
   1487 O         176.1447  118.9632   11.1029 O.3     212      M_A    0.0000
   1488 H         176.5377  116.5181   11.1287 H       212      M_A    0.0000
   1489 H         178.2644  116.8671   11.2826 H       212      M_A    0.0000
   1490 H         178.1093  118.9809   10.3759 H       212      M_A    0.0000
   1491 H         176.8506  118.5357    9.2324 H       212      M_A    0.0000
   1492 C         176.0049  120.3550   10.9022 C.3     213      M_A    0.0000
   1493 C         174.7349  120.9032   11.5463 C.3     213      M_A    0.0000
   1494 O         174.8963  122.2827   11.8761 O.3     213      M_A    0.0000
   1495 H         176.8950  120.8629   11.2886 H       213      M_A    0.0000
   1496 H         175.9618  120.5371    9.8223 H       213      M_A    0.0000
   1497 H         173.8743  120.7495   10.8794 H       213      M_A    0.0000
   1498 H         174.5036  120.3681   12.4758 H       213      M_A    0.0000
   1499 C         173.8067  122.7635   12.6367 C.3     214      M_A    0.0000
   1500 C         173.7313  124.2875   12.6319 C.3     214      M_A    0.0000
   1501 O         172.8642  124.7424   11.5932 O.3     214      M_A    0.0000
   1502 H         172.8809  122.3207   12.2542 H       214      M_A    0.0000
   1503 H         173.9376  122.4182   13.6686 H       214      M_A    0.0000
   1504 H         173.4040  124.6543   13.6154 H       214      M_A    0.0000
   1505 H         174.7195  124.7289   12.4518 H       214      M_A    0.0000
   1506 C         173.1908  126.0552   11.1846 C.3     215      M_A    0.0000
   1507 C         171.9726  126.8161   10.6697 C.3     215      M_A    0.0000
   1508 O         172.0511  128.1935   11.0363 O.3     215      M_A    0.0000
   1509 H         173.6621  126.5828   12.0207 H       215      M_A    0.0000
   1510 H         173.9304  125.9831   10.3790 H       215      M_A    0.0000
   1511 H         171.8832  126.6967    9.5803 H       215      M_A    0.0000
   1512 H         171.0473  126.4136   11.1007 H       215      M_A    0.0000
   1513 C         171.6742  129.0358    9.9662 C.3     216      M_A    0.0000
   1514 C         171.1126  130.3679   10.4543 C.3     216      M_A    0.0000
   1515 O         171.6490  131.4475    9.6897 O.3     216      M_A    0.0000
   1516 H         172.5377  129.1876    9.3097 H       216      M_A    0.0000
   1517 H         170.9030  128.5176    9.3849 H       216      M_A    0.0000
   1518 H         170.0140  130.3550   10.4119 H       216      M_A    0.0000
   1519 H         171.3784  130.5449   11.5040 H       216      M_A    0.0000
   1520 C         171.0767  132.6832   10.0673 C.3     217      M_A    0.0000
   1521 C         170.9725  133.6507    8.8920 C.3     217      M_A    0.0000
   1522 O         169.8725  134.5422    9.0736 O.3     217      M_A    0.0000
   1523 H         170.0948  132.4998   10.5165 H       217      M_A    0.0000
   1524 H         171.7158  133.1291   10.8380 H       217      M_A    0.0000
   1525 H         171.9166  134.2005    8.7683 H       217      M_A    0.0000
   1526 H         170.8054  133.1099    7.9521 H       217      M_A    0.0000
   1527 C         169.8600  135.0895   10.3764 C.3     218      M_A    0.0000
   1528 C         169.9944  136.6094   10.3619 C.3     218      M_A    0.0000
   1529 O         168.7069  137.2258   10.3744 O.3     218      M_A    0.0000
   1530 H         168.9416  134.7787   10.8858 H       218      M_A    0.0000
   1531 H         170.7056  134.6640   10.9288 H       218      M_A    0.0000
   1532 H         170.6064  136.9443   11.2117 H       218      M_A    0.0000
   1533 H         170.5125  136.9490    9.4564 H       218      M_A    0.0000
   1534 C         168.8001  138.6131   10.6267 C.3     219      M_A    0.0000
   1535 C         168.4671  139.4449    9.3917 C.3     219      M_A    0.0000
   1536 O         167.5970  140.5235    9.7345 O.3     219      M_A    0.0000
   1537 H         168.1429  138.8689   11.4646 H       219      M_A    0.0000
   1538 H         169.8293  138.8313   10.9342 H       219      M_A    0.0000
   1539 H         169.3906  139.8105    8.9201 H       219      M_A    0.0000
   1540 H         167.9547  138.8372    8.6355 H       219      M_A    0.0000
   1541 C         168.2658  141.5037   10.5019 C.3     220      M_A    0.0000
   1542 C         168.2986  141.1477   11.9852 C.3     220      M_A    0.0000
   1543 O         169.5008  140.4477   12.3054 O.3     220      M_A    0.0000
   1544 H         169.2777  141.6389   10.1053 H       220      M_A    0.0000
   1545 H         167.7312  142.4523   10.3767 H       220      M_A    0.0000
   1546 H         168.1897  142.0555   12.5959 H       220      M_A    0.0000
   1547 H         167.4577  140.4949   12.2510 H       220      M_A    0.0000
   1548 C         170.1644  140.0000   11.1409 C.3     221      M_A    0.0000
   1549 C         171.6661  140.2643   11.1984 C.3     221      M_A    0.0000
   1550 O         172.3537  139.4542   10.2450 O.3     221      M_A    0.0000
   1551 H         169.9558  138.9343   10.9981 H       221      M_A    0.0000
   1552 H         169.7422  140.5380   10.2845 H       221      M_A    0.0000
   1553 H         171.8699  141.3325   11.0364 H       221      M_A    0.0000
   1554 H         172.0701  140.0203   12.1888 H       221      M_A    0.0000
   1555 C         171.8980  138.1170   10.2781 C.3     222      M_A    0.0000
   1556 C         173.0484  137.1166   10.2143 C.3     222      M_A    0.0000
   1557 O         173.7436  137.0734   11.4604 O.3     222      M_A    0.0000
   1558 H         171.2937  137.9676   11.1792 H       222      M_A    0.0000
   1559 H         171.2449  137.9619    9.4116 H       222      M_A    0.0000
   1560 H         172.6720  136.1229    9.9317 H       222      M_A    0.0000
   1561 H         173.7744  137.4019    9.4428 H       222      M_A    0.0000
   1562 C         174.3759  135.8249   11.6568 C.3     223      M_A    0.0000
   1563 C         173.7863  135.0626   12.8397 C.3     223      M_A    0.0000
   1564 O         173.5098  133.7102   12.4759 O.3     223      M_A    0.0000
   1565 H         174.3048  135.2392   10.7341 H       223      M_A    0.0000
   1566 H         175.4385  136.0120   11.8496 H       223      M_A    0.0000
   1567 H         174.4672  135.1136   13.7015 H       223      M_A    0.0000
   1568 H         172.8415  135.5146   13.1665 H       223      M_A    0.0000
   1569 C         174.3361  133.2813   11.4128 C.3     224      M_A    0.0000
   1570 C         175.1797  132.0686   11.7946 C.3     224      M_A    0.0000
   1571 O         174.7277  130.9059   11.1006 O.3     224      M_A    0.0000
   1572 H         173.7118  133.0690   10.5382 H       224      M_A    0.0000
   1573 H         175.0042  134.1095   11.1500 H       224      M_A    0.0000
   1574 H         176.2423  132.2668   11.5930 H       224      M_A    0.0000
   1575 H         175.1037  131.8601   12.8691 H       224      M_A    0.0000
   1576 C         174.8842  129.7414   11.8857 C.3     225      M_A    0.0000
   1577 C         174.5341  128.4748   11.1103 C.3     225      M_A    0.0000
   1578 O         175.6399  128.0559   10.3106 O.3     225      M_A    0.0000
   1579 H         175.9108  129.7016   12.2652 H       225      M_A    0.0000
   1580 H         174.2146  129.8249   12.7494 H       225      M_A    0.0000
   1581 H         174.2179  127.6813   11.8025 H       225      M_A    0.0000
   1582 H         173.6876  128.6496   10.4346 H       225      M_A    0.0000
   1583 C         175.7894  126.6508   10.3300 C.3     226      M_A    0.0000
   1584 C         177.1743  126.2274   10.8106 C.3     226      M_A    0.0000
   1585 O         177.3816  124.8348   10.5751 O.3     226      M_A    0.0000
   1586 H         175.0035  126.2165   10.9571 H       226      M_A    0.0000
   1587 H         175.6404  126.2819    9.3088 H       226      M_A    0.0000
   1588 H         177.9483  126.8354   10.3206 H       226      M_A    0.0000
   1589 H         177.2850  126.3983   11.8887 H       226      M_A    0.0000
   1590 C         178.4755  124.3413   11.3213 C.3     227      M_A    0.0000
   1591 C         178.1577  124.2447   12.8105 C.3     227      M_A    0.0000
   1592 O         177.8293  122.9017   13.1662 O.3     227      M_A    0.0000
   1593 H         178.7740  123.3682   10.9169 H       227      M_A    0.0000
   1594 H         179.3165  125.0301   11.1821 H       227      M_A    0.0000
   1595 H         179.0037  124.6201   13.4042 H       227      M_A    0.0000
   1596 H         177.2965  124.8731   13.0697 H       227      M_A    0.0000
   1597 C         176.6730  122.8494   13.9768 C.3     228      M_A    0.0000
   1598 C         176.0000  121.4808   13.9293 C.3     228      M_A    0.0000
   1599 O         175.6785  121.0353   15.2469 O.3     228      M_A    0.0000
   1600 H         176.9431  123.1217   15.0026 H       228      M_A    0.0000
   1601 H         175.9686  123.6039   13.6081 H       228      M_A    0.0000
   1602 H         175.1057  121.5197   13.2909 H       228      M_A    0.0000
   1603 H         176.6653  120.7315   13.4823 H       228      M_A    0.0000
   1604 C         174.7489  119.9713   15.2206 C.3     229      M_A    0.0000
   1605 C         175.2074  118.8304   14.3171 C.3     229      M_A    0.0000
   1606 O         174.9936  117.5708   14.9540 O.3     229      M_A    0.0000
   1607 H         174.5779  119.6208   16.2440 H       229      M_A    0.0000
   1608 H         173.7983  120.3637   14.8414 H       229      M_A    0.0000
   1609 H         174.6896  118.8818   13.3485 H       229      M_A    0.0000
   1610 H         176.2795  118.9099   14.0979 H       229      M_A    0.0000
   1611 C         174.2778  116.6838   14.1187 C.3     230      M_A    0.0000
   1612 C         174.5490  115.2231   14.4663 C.3     230      M_A    0.0000
   1613 O         173.3222  114.5153   14.6454 O.3     230      M_A    0.0000
   1614 H         173.2092  116.9142   14.1852 H       230      M_A    0.0000
   1615 H         174.5926  116.8666   13.0848 H       230      M_A    0.0000
   1616 H         175.1697  114.7566   13.6878 H       230      M_A    0.0000
   1617 H         175.1153  115.1409   15.4023 H       230      M_A    0.0000
   1618 C         173.4201  113.1846   14.1799 C.3     231      M_A    0.0000
   1619 C         172.8268  112.1853   15.1685 C.3     231      M_A    0.0000
   1620 O         172.0348  111.2145   14.4844 O.3     231      M_A    0.0000
   1621 H         172.9316  113.1111   13.2024 H       231      M_A    0.0000
   1622 H         174.4823  112.9546   14.0376 H       231      M_A    0.0000
   1623 H         173.6271  111.7088   15.7528 H       231      M_A    0.0000
   1624 H         172.1750  112.6896   15.8929 H       231      M_A    0.0000
   1625 C         172.8360  110.1902   13.9313 C.3     232      M_A    0.0000
   1626 C         173.4875  109.3266   15.0073 C.3     232      M_A    0.0000
   1627 O         172.5691  108.3428   15.4834 O.3     232      M_A    0.0000
   1628 H         172.2243  109.5841   13.2546 H       232      M_A    0.0000
   1629 H         173.6224  110.6639   13.3325 H       232      M_A    0.0000
   1630 H         174.4045  108.8620   14.6173 H       232      M_A    0.0000
   1631 H         173.7924  109.9351   15.8678 H       232      M_A    0.0000
   1632 C         173.2153  107.3799   16.2909 C.3     233      M_A    0.0000
   1633 C         172.5492  107.2353   17.6561 C.3     233      M_A    0.0000
   1634 O         172.2842  105.8617   17.9406 O.3     233      M_A    0.0000
   1635 H         173.2368  106.4232   15.7582 H       233      M_A    0.0000
   1636 H         174.2528  107.7024   16.4350 H       233      M_A    0.0000
   1637 H         173.1774  107.6910   18.4350 H       233      M_A    0.0000
   1638 H         171.5901  107.7674   17.6833 H       233      M_A    0.0000
   1639 C         171.2483  105.3549   17.1240 C.3     234      M_A    0.0000
   1640 C         171.0219  103.8621   17.3442 C.3     234      M_A    0.0000
   1641 O         170.2551  103.6415   18.5280 O.3     234      M_A    0.0000
   1642 H         170.3328  105.9256   17.3127 H       234      M_A    0.0000
   1643 H         171.5322  105.5200   16.0783 H       234      M_A    0.0000
   1644 H         170.5351  103.4182   16.4639 H       234      M_A    0.0000
   1645 H         171.9758  103.3343   17.4676 H       234      M_A    0.0000
   1646 C         171.0424  103.0762   19.5563 C.3     235      M_A    0.0000
   1647 C         172.2653  103.9300   19.8783 C.3     235      M_A    0.0000
   1648 O         172.7287  103.6616   21.2016 O.3     235      M_A    0.0000
   1649 H         170.4183  102.9289   20.4442 H       235      M_A    0.0000
   1650 H         171.3781  102.0887   19.2196 H       235      M_A    0.0000
   1651 H         173.0562  103.7558   19.1346 H       235      M_A    0.0000
   1652 H         172.0228  104.9987   19.8256 H       235      M_A    0.0000
   1653 C         173.9322  104.3489   21.4775 C.3     236      M_A    0.0000
   1654 C         174.7480  103.6626   22.5691 C.3     236      M_A    0.0000
   1655 O         175.9523  103.1200   22.0275 O.3     236      M_A    0.0000
   1656 H         174.5103  104.4428   20.5520 H       236      M_A    0.0000
   1657 H         173.6738  105.3605   21.8110 H       236      M_A    0.0000
   1658 H         174.9590  104.3682   23.3855 H       236      M_A    0.0000
   1659 H         174.1861  102.8332   23.0163 H       236      M_A    0.0000
   1660 C         176.9092  102.8746   23.0380 C.3     237      M_A    0.0000
   1661 C         178.1157  102.1034   22.5110 C.3     237      M_A    0.0000
   1662 O         179.3288  102.6835   22.9902 O.3     237      M_A    0.0000
   1663 H         177.2130  103.8286   23.4818 H       237      M_A    0.0000
   1664 H         176.4256  102.2827   23.8235 H       237      M_A    0.0000
   1665 H         178.0409  101.0432   22.7926 H       237      M_A    0.0000
   1666 H         178.1499  102.1292   21.4146 H       237      M_A    0.0000
   1667 C         180.1298  101.7298   23.6579 C.3     238      M_A    0.0000
   1668 C         181.6178  102.0459   23.5395 C.3     238      M_A    0.0000
   1669 O         182.0856  102.7016   24.7181 O.3     238      M_A    0.0000
   1670 H         179.8197  101.6743   24.7069 H       238      M_A    0.0000
   1671 H         179.9379  100.7511   23.2034 H       238      M_A    0.0000
   1672 H         182.1866  101.1261   23.3411 H       238      M_A    0.0000
   1673 H         181.8106  102.7160   22.6924 H       238      M_A    0.0000
   1674 C         183.2560  103.4512   24.4631 C.3     239      M_A    0.0000
   1675 C         184.1751  103.5123   25.6795 C.3     239      M_A    0.0000
   1676 O         185.5360  103.3314   25.2881 O.3     239      M_A    0.0000
   1677 H         183.7732  103.0228   23.5979 H       239      M_A    0.0000
   1678 H         182.9523  104.4700   24.1966 H       239      M_A    0.0000
   1679 H         184.0356  104.4634   26.2132 H       239      M_A    0.0000
   1680 H         183.9311  102.7182   26.3962 H       239      M_A    0.0000
   1681 C         186.4196  104.0001   26.1650 C.3     240      M_A    0.0000
   1682 C         187.3261  103.0298   26.9166 C.3     240      M_A    0.0000
   1683 O         188.4380  102.6525   26.1047 O.3     240      M_A    0.0000
   1684 H         187.0063  104.7280   25.5945 H       240      M_A    0.0000
   1685 H         185.8164  104.5568   26.8913 H       240      M_A    0.0000
   1686 H         187.6570  103.4769   27.8651 H       240      M_A    0.0000
   1687 H         186.7857  102.1122   27.1806 H       240      M_A    0.0000
   1688 C         188.3250  101.3154   25.6620 C.3     241      M_A    0.0000
   1689 C         189.3779  100.4102   26.2947 C.3     241      M_A    0.0000
   1690 O         188.9451   99.0499   26.2756 O.3     241      M_A    0.0000
   1691 H         187.3134  100.9530   25.8738 H       241      M_A    0.0000
   1692 H         188.4586  101.3081   24.5741 H       241      M_A    0.0000
   1693 H         190.3413  100.5306   25.7788 H       241      M_A    0.0000
   1694 H         189.5530  100.6845   27.3424 H       241      M_A    0.0000
   1695 C         190.0300   98.1647   26.0846 C.3     242      M_A    0.0000
   1696 C         190.3365   97.3530   27.3397 C.3     242      M_A    0.0000
   1697 O         190.9979   96.1348   26.9987 O.3     242      M_A    0.0000
   1698 H         189.8116   97.5102   25.2340 H       242      M_A    0.0000
   1699 H         190.9111   98.7626   25.8250 H       242      M_A    0.0000
   1700 H         190.9361   97.9508   28.0412 H       242      M_A    0.0000
   1701 H         189.4138   97.0883   27.8711 H       242      M_A    0.0000
   1702 C         192.3740   96.3440   26.7551 C.3     243      M_A    0.0000
   1703 C         193.2016   95.0903   27.0225 C.3     243      M_A    0.0000
   1704 O         193.4339   94.3757   25.8087 O.3     243      M_A    0.0000
   1705 H         192.5057   96.6924   25.7251 H       243      M_A    0.0000
   1706 H         192.7165   97.1437   27.4218 H       243      M_A    0.0000
   1707 H         194.1469   95.3577   27.5162 H       243      M_A    0.0000
   1708 H         192.6772   94.4125   27.7075 H       243      M_A    0.0000
   1709 C         194.0685   93.1366   26.0513 C.3     244      M_A    0.0000
   1710 C         193.1460   92.1478   26.7581 C.3     244      M_A    0.0000
   1711 O         193.4703   90.8079   26.3873 O.3     244      M_A    0.0000
   1712 H         194.4317   92.7291   25.1019 H       244      M_A    0.0000
   1713 H         194.9413   93.3238   26.6872 H       244      M_A    0.0000
   1714 H         193.2041   92.2865   27.8473 H       244      M_A    0.0000
   1715 H         192.0986   92.3210   26.4809 H       244      M_A    0.0000
   1716 C         192.3532   89.9517   26.5131 C.3     245      M_A    0.0000
   1717 C         192.7429   88.5728   27.0374 C.3     245      M_A    0.0000
   1718 O         192.3770   88.4378   28.4107 O.3     245      M_A    0.0000
   1719 H         191.6105   90.4264   27.1631 H       245      M_A    0.0000
   1720 H         191.9015   89.8390   25.5208 H       245      M_A    0.0000
   1721 H         192.2807   87.7880   26.4214 H       245      M_A    0.0000
   1722 H         193.8271   88.4190   26.9697 H       245      M_A    0.0000
   1723 C         192.3875   87.0847   28.8181 C.3     246      M_A    0.0000
   1724 C         191.0032   86.6015   29.2402 C.3     246      M_A    0.0000
   1725 O         190.7787   85.2670   28.7855 O.3     246      M_A    0.0000
   1726 H         192.7902   86.4700   28.0060 H       246      M_A    0.0000
   1727 H         193.0698   86.9949   29.6712 H       246      M_A    0.0000
   1728 H         190.8916   86.6762   30.3315 H       246      M_A    0.0000
   1729 H         190.2178   87.2328   28.8063 H       246      M_A    0.0000
   1730 C         191.9804   84.5243   28.7483 C.3     247      M_A    0.0000
   1731 C         191.8625   83.2034   29.5029 C.3     247      M_A    0.0000
   1732 O         191.3105   82.1926   28.6594 O.3     247      M_A    0.0000
   1733 H         192.2660   84.3589   27.7040 H       247      M_A    0.0000
   1734 H         192.7656   85.1302   29.2147 H       247      M_A    0.0000
   1735 H         192.8438   82.9029   29.8975 H       247      M_A    0.0000
   1736 H         191.1993   83.3051   30.3710 H       247      M_A    0.0000
   1737 C         190.6097   81.2203   29.4079 C.3     248      M_A    0.0000
   1738 C         189.5394   80.5181   28.5775 C.3     248      M_A    0.0000
   1739 O         190.1102   79.9599   27.3941 O.3     248      M_A    0.0000
   1740 H         191.3261   80.5011   29.8189 H       248      M_A    0.0000
   1741 H         190.1279   81.7273   30.2517 H       248      M_A    0.0000
   1742 H         189.0358   79.7485   29.1800 H       248      M_A    0.0000
   1743 H         188.7595   81.2237   28.2648 H       248      M_A    0.0000
   1744 C         190.7246   78.7142   27.6541 C.3     249      M_A    0.0000
   1745 C         189.7381   77.6930   28.2127 C.3     249      M_A    0.0000
   1746 O         189.0779   77.0026   27.1518 O.3     249      M_A    0.0000
   1747 H         191.1940   78.3484   26.7347 H       249      M_A    0.0000
   1748 H         191.5201   78.8779   28.3900 H       249      M_A    0.0000
   1749 H         190.2559   76.9930   28.8841 H       249      M_A    0.0000
   1750 H         188.9646   78.1838   28.8165 H       249      M_A    0.0000
   1751 C         188.2775   75.9460   27.6415 C.3     250      M_A    0.0000
   1752 C         187.1859   76.4424   28.5850 C.3     250      M_A    0.0000
   1753 O         186.1578   75.4614   28.7211 O.3     250      M_A    0.0000
   1754 H         187.8493   75.3998   26.7943 H       250      M_A    0.0000
   1755 H         188.9295   75.2540   28.1866 H       250      M_A    0.0000
   1756 H         187.6187   76.7061   29.5608 H       250      M_A    0.0000
   1757 H         186.7185   77.3566   28.1982 H       250      M_A    0.0000
   1758 C         185.6857   75.3880   30.0510 C.3     251      M_A    0.0000
   1759 C         184.5006   74.4368   30.1878 C.3     251      M_A    0.0000
   1760 O         184.6754   73.5784   31.3150 O.3     251      M_A    0.0000
   1761 H         186.5103   75.0892   30.7069 H       251      M_A    0.0000
   1762 H         185.3700   76.3934   30.3524 H       251      M_A    0.0000
   1763 H         183.5630   75.0065   30.2608 H       251      M_A    0.0000
   1764 H         184.4050   73.7985   29.3006 H       251      M_A    0.0000
   1765 C         183.4630   72.9512   31.6805 C.3     252      M_A    0.0000
   1766 C         183.2969   71.5894   31.0126 C.3     252      M_A    0.0000
   1767 O         183.2547   70.5528   31.9933 O.3     252      M_A    0.0000
   1768 H         183.4203   72.8643   32.7714 H       252      M_A    0.0000
   1769 H         182.6389   73.6025   31.3674 H       252      M_A    0.0000
   1770 H         182.3947   71.5823   30.3843 H       252      M_A    0.0000
   1771 H         184.1398   71.3747   30.3438 H       252      M_A    0.0000
   1772 C         182.9162   69.3082   31.4161 C.3     253      M_A    0.0000
   1773 C         184.0835   68.6949   30.6484 C.3     253      M_A    0.0000
   1774 O         184.1828   67.2972   30.9212 O.3     253      M_A    0.0000
   1775 H         182.5627   68.6336   32.2031 H       253      M_A    0.0000
   1776 H         182.0837   69.4736   30.7227 H       253      M_A    0.0000
   1777 H         183.9711   68.8851   29.5713 H       253      M_A    0.0000
   1778 H         185.0340   69.1558   30.9451 H       253      M_A    0.0000
   1779 C         184.5999   66.5758   29.7800 C.3     254      M_A    0.0000
   1780 C         185.9637   65.9217   29.9810 C.3     254      M_A    0.0000
   1781 O         185.9133   64.5400   29.6256 O.3     254      M_A    0.0000
   1782 H         183.8372   65.8308   29.5296 H       254      M_A    0.0000
   1783 H         184.6641   67.2790   28.9417 H       254      M_A    0.0000
   1784 H         186.7300   66.4560   29.4013 H       254      M_A    0.0000
   1785 H         186.2758   65.9796   31.0312 H       254      M_A    0.0000
   1786 C         187.0618   63.8487   30.0728 C.3     255      M_A    0.0000
   1787 C         186.9779   62.3519   29.7886 C.3     255      M_A    0.0000
   1788 O         188.2797   61.7663   29.8021 O.3     255      M_A    0.0000
   1789 H         187.9489   64.2905   29.6065 H       255      M_A    0.0000
   1790 H         187.1461   63.9999   31.1550 H       255      M_A    0.0000
   1791 H         186.3125   61.8643   30.5155 H       255      M_A    0.0000
   1792 H         186.5434   62.1640   28.7988 H       255      M_A    0.0000
   1793 C         188.2594   60.4486   29.2919 C.3     256      M_A    0.0000
   1794 C         189.1404   59.5046   30.1047 C.3     256      M_A    0.0000
   1795 O         188.4923   58.2454   30.2842 O.3     256      M_A    0.0000
   1796 H         187.2238   60.0937   29.2601 H       256      M_A    0.0000
   1797 H         188.6306   60.4806   28.2611 H       256      M_A    0.0000
   1798 H         190.1189   59.3848   29.6176 H       256      M_A    0.0000
   1799 H         189.3411   59.9159   31.1019 H       256      M_A    0.0000
   1800 C         189.3290   57.1735   29.8994 C.3     257      M_A    0.0000
   1801 C         190.6517   57.1760   30.6600 C.3     257      M_A    0.0000
   1802 O         191.0976   55.8400   30.8929 O.3     257      M_A    0.0000
   1803 H         188.7912   56.2305   30.0446 H       257      M_A    0.0000
   1804 H         189.5359   57.2755   28.8279 H       257      M_A    0.0000
   1805 H         191.4047   57.7586   30.1099 H       257      M_A    0.0000
   1806 H         190.5413   57.6607   31.6380 H       257      M_A    0.0000
   1807 C         192.0466   55.4357   29.9272 C.3     258      M_A    0.0000
   1808 C         192.5583   54.0210   30.1822 C.3     258      M_A    0.0000
   1809 O         193.0217   53.4300   28.9681 O.3     258      M_A    0.0000
   1810 H         191.6009   55.5212   28.9304 H       258      M_A    0.0000
   1811 H         192.8918   56.1320   29.9731 H       258      M_A    0.0000
   1812 H         193.3481   54.0352   30.9469 H       258      M_A    0.0000
   1813 H         191.7598   53.3798   30.5758 H       258      M_A    0.0000
   1814 C         191.9506   53.1339   28.0952 C.3     259      M_A    0.0000
   1815 C         192.3633   52.1707   26.9861 C.3     259      M_A    0.0000
   1816 O         192.3814   50.8279   27.4704 O.3     259      M_A    0.0000
   1817 H         191.1155   52.7310   28.6781 H       259      M_A    0.0000
   1818 H         191.6154   54.0738   27.6420 H       259      M_A    0.0000
   1819 H         191.6906   52.2754   26.1227 H       259      M_A    0.0000
   1820 H         193.3717   52.4017   26.6207 H       259      M_A    0.0000
   1821 C         192.8597   50.7635   28.7985 C.3     260      M_A    0.0000
   1822 C         194.1950   50.0312   28.8930 C.3     260      M_A    0.0000
   1823 O         194.9578   50.5217   29.9954 O.3     260      M_A    0.0000
   1824 H         192.9367   51.7795   29.2003 H       260      M_A    0.0000
   1825 H         192.1169   50.2253   29.3984 H       260      M_A    0.0000
   1826 H         194.0286   48.9473   28.9725 H       260      M_A    0.0000
   1827 H         194.7923   50.1854   27.9857 H       260      M_A    0.0000
   1828 C         195.6799   49.4841   30.6271 C.3     261      M_A    0.0000
   1829 C         196.4181   48.6043   29.6226 C.3     261      M_A    0.0000
   1830 O         197.1911   47.6128   30.2988 O.3     261      M_A    0.0000
   1831 H         196.3729   49.9219   31.3535 H       261      M_A    0.0000
   1832 H         194.9651   48.8656   31.1821 H       261      M_A    0.0000
   1833 H         195.7044   48.1463   28.9228 H       261      M_A    0.0000
   1834 H         197.1088   49.1997   29.0124 H       261      M_A    0.0000
   1835 C         197.2022   46.3918   29.5877 C.3     262      M_A    0.0000
   1836 C         197.3344   46.6050   28.0827 C.3     262      M_A    0.0000
   1837 O         197.5724   45.3631   27.4202 O.3     262      M_A    0.0000
   1838 H         198.0128   45.7626   29.9705 H       262      M_A    0.0000
   1839 H         196.2573   45.8749   29.7909 H       262      M_A    0.0000
   1840 H         196.4361   47.1023   27.6894 H       262      M_A    0.0000
   1841 H         198.1786   47.2671   27.8527 H       262      M_A    0.0000
   1842 C         198.8668   44.8687   27.6975 C.3     263      M_A    0.0000
   1843 C         199.0607   43.4459   27.1814 C.3     263      M_A    0.0000
   1844 O         200.0447   43.4182   26.1476 O.3     263      M_A    0.0000
   1845 H         199.6091   45.5496   27.2676 H       263      M_A    0.0000
   1846 H         199.0034   44.8731   28.7849 H       263      M_A    0.0000
   1847 H         199.3318   42.7755   28.0096 H       263      M_A    0.0000
   1848 H         198.1284   43.0513   26.7583 H       263      M_A    0.0000
   1849 C         199.8011   42.3719   25.2296 C.3     264      M_A    0.0000
   1850 C         201.0305   41.4923   25.0220 C.3     264      M_A    0.0000
   1851 O         200.7698   40.1574   25.4555 O.3     264      M_A    0.0000
   1852 H         198.9472   41.7817   25.5788 H       264      M_A    0.0000
   1853 H         199.5220   42.8232   24.2705 H       264      M_A    0.0000
   1854 H         201.3410   41.5169   23.9676 H       264      M_A    0.0000
   1855 H         201.8830   41.8658   25.6030 H       264      M_A    0.0000
   1856 C         201.4571   39.2122   24.6613 C.3     265      M_A    0.0000
   1857 C         202.3850   38.3306   25.4920 C.3     265      M_A    0.0000
   1858 O         202.4630   37.0195   24.9327 O.3     265      M_A    0.0000
   1859 H         200.7269   38.6093   24.1110 H       265      M_A    0.0000
   1860 H         202.0551   39.7617   23.9252 H       265      M_A    0.0000
   1861 H         203.3798   38.7926   25.5682 H       265      M_A    0.0000
   1862 H         202.0134   38.2280   26.5192 H       265      M_A    0.0000
   1863 C         203.0768   36.1121   25.8253 C.3     266      M_A    0.0000
   1864 C         204.3965   35.5743   25.2799 C.3     266      M_A    0.0000
   1865 O         205.4948   36.3263   25.7959 O.3     266      M_A    0.0000
   1866 H         203.2204   36.6045   26.7929 H       266      M_A    0.0000
   1867 H         202.3886   35.2731   25.9792 H       266      M_A    0.0000
   1868 H         204.4975   34.5053   25.5166 H       266      M_A    0.0000
   1869 H         204.4301   35.6522   24.1860 H       266      M_A    0.0000
   1870 C         206.6845   36.0611   25.0809 C.3     267      M_A    0.0000
   1871 C         207.5874   37.2880   24.9936 C.3     267      M_A    0.0000
   1872 O         208.0493   37.6629   26.2913 O.3     267      M_A    0.0000
   1873 H         207.2046   35.2202   25.5520 H       267      M_A    0.0000
   1874 H         206.4065   35.7526   24.0666 H       267      M_A    0.0000
   1875 H         208.4272   37.0933   24.3111 H       267      M_A    0.0000
   1876 H         207.0448   38.1459   24.5774 H       267      M_A    0.0000
   1877 C         207.3943   36.9285   27.3055 C.3     268      M_A    0.0000
   1878 C         207.4563   35.4244   27.0564 C.3     268      M_A    0.0000
   1879 O         208.7037   34.8939   27.5041 O.3     268      M_A    0.0000
   1880 H         207.8341   37.1871   28.2746 H       268      M_A    0.0000
   1881 H         206.3442   37.2419   27.3238 H       268      M_A    0.0000
   1882 H         206.6094   34.9233   27.5469 H       268      M_A    0.0000
   1883 H         207.3691   35.1999   25.9860 H       268      M_A    0.0000
   1884 C         209.5343   34.5382   26.4177 C.3     269      M_A    0.0000
   1885 C         209.9324   33.0657   26.4574 C.3     269      M_A    0.0000
   1886 O         208.7869   32.2435   26.6805 O.3     269      M_A    0.0000
   1887 H         209.0226   34.7842   25.4811 H       269      M_A    0.0000
   1888 H         210.4407   35.1521   26.4713 H       269      M_A    0.0000
   1889 H         210.4496   32.7872   25.5279 H       269      M_A    0.0000
   1890 H         210.6397   32.8722   27.2735 H       269      M_A    0.0000
   1891 C         209.1426   31.0108   27.2728 C.3     270      M_A    0.0000
   1892 C         208.8738   29.8294   26.3453 C.3     270      M_A    0.0000
   1893 O         210.0478   29.4981   25.6037 O.3     270      M_A    0.0000
   1894 H         210.1960   31.0480   27.5704 H       270      M_A    0.0000
   1895 H         208.5450   30.8896   28.1835 H       270      M_A    0.0000
   1896 H         208.5098   28.9680   26.9236 H       270      M_A    0.0000
   1897 H         208.0851   30.0701   25.6215 H       270      M_A    0.0000
   1898 C         211.0955   30.4115   25.8587 C.3     271      M_A    0.0000
   1899 C         212.1691   29.8154   26.7644 C.3     271      M_A    0.0000
   1900 O         213.4164   30.4812   26.5673 O.3     271      M_A    0.0000
   1901 H         211.5214   30.7419   24.9053 H       271      M_A    0.0000
   1902 H         210.6640   31.2904   26.3512 H       271      M_A    0.0000
   1903 H         211.8502   29.8666   27.8154 H       271      M_A    0.0000
   1904 H         212.3252   28.7526   26.5412 H       271      M_A    0.0000
   1905 C         214.4965   29.7106   27.0533 C.3     272      M_A    0.0000
   1906 C         215.7888   29.9884   26.2910 C.3     272      M_A    0.0000
   1907 O         216.9051   29.9856   27.1807 O.3     272      M_A    0.0000
   1908 H         214.6200   29.9038   28.1242 H       272      M_A    0.0000
   1909 H         214.2357   28.6526   26.9352 H       272      M_A    0.0000
   1910 H         215.9188   29.2531   25.4839 H       272      M_A    0.0000
   1911 H         215.7559   30.9731   25.8082 H       272      M_A    0.0000
   1912 C         218.1245   30.1291   26.4810 C.3     273      M_A    0.0000
   1913 C         219.1594   29.0943   26.9127 C.3     273      M_A    0.0000
   1914 O         219.8037   28.5252   25.7730 O.3     273      M_A    0.0000
   1915 H         217.9286   30.0673   25.4052 H       273      M_A    0.0000
   1916 H         218.5167   31.1311   26.6895 H       273      M_A    0.0000
   1917 H         219.8884   29.5498   27.5983 H       273      M_A    0.0000
   1918 H         218.6866   28.2737   27.4667 H       273      M_A    0.0000
   1919 C         218.8639   28.0269   24.8428 C.3     274      M_A    0.0000
   1920 C         219.2145   28.4141   23.4091 C.3     274      M_A    0.0000
   1921 O         219.5758   29.7933   23.3373 O.3     274      M_A    0.0000
   1922 H         218.7943   26.9394   24.9528 H       274      M_A    0.0000
   1923 H         217.8842   28.4489   25.0945 H       274      M_A    0.0000
   1924 H         220.0196   27.7695   23.0280 H       274      M_A    0.0000
   1925 H         218.3572   28.2638   22.7411 H       274      M_A    0.0000
   1926 C         218.9150   30.4462   22.2724 C.3     275      M_A    0.0000
   1927 C         219.4764   31.8420   22.0180 C.3     275      M_A    0.0000
   1928 O         220.5164   31.7928   21.0413 O.3     275      M_A    0.0000
   1929 H         218.9825   29.8232   21.3742 H       275      M_A    0.0000
   1930 H         217.8548   30.5332   22.5365 H       275      M_A    0.0000
   1931 H         218.6712   32.5247   21.7106 H       275      M_A    0.0000
   1932 H         219.9062   32.2653   22.9344 H       275      M_A    0.0000
   1933 C         221.3109   32.9609   21.0725 C.3     276      M_A    0.0000
   1934 C         222.2076   33.0126   22.3060 C.3     276      M_A    0.0000
   1935 O         223.0011   34.1992   22.2986 O.3     276      M_A    0.0000
   1936 H         221.9016   33.0161   20.1519 H       276      M_A    0.0000
   1937 H         220.6380   33.8259   21.0870 H       276      M_A    0.0000
   1938 H         221.6002   32.9434   23.2199 H       276      M_A    0.0000
   1939 H         222.8951   32.1578   22.3276 H       276      M_A    0.0000
   1940 C         222.4121   35.2202   23.0780 C.3     277      M_A    0.0000
   1941 C         222.1864   36.4978   22.2749 C.3     277      M_A    0.0000
   1942 O         220.9205   37.0740   22.5963 O.3     277      M_A    0.0000
   1943 H         221.4731   34.8491   23.5024 H       277      M_A    0.0000
   1944 H         223.0886   35.4404   23.9118 H       277      M_A    0.0000
   1945 H         223.0062   37.2084   22.4539 H       277      M_A    0.0000
   1946 H         222.1887   36.2898   21.1976 H       277      M_A    0.0000
   1947 C         221.0435   38.0717   23.5894 C.3     278      M_A    0.0000
   1948 C         220.3295   39.3622   23.1982 C.3     278      M_A    0.0000
   1949 O         219.4022   39.7484   24.2125 O.3     278      M_A    0.0000
   1950 H         220.6613   37.6805   24.5383 H       278      M_A    0.0000
   1951 H         222.1104   38.2835   23.7240 H       278      M_A    0.0000
   1952 H         221.0631   40.1577   23.0033 H       278      M_A    0.0000
   1953 H         219.7630   39.2309   22.2679 H       278      M_A    0.0000
   1954 C         218.5995   40.8333   23.7936 C.3     279      M_A    0.0000
   1955 C         218.8236   42.0771   24.6486 C.3     279      M_A    0.0000
   1956 O         219.4767   43.0948   23.8900 O.3     279      M_A    0.0000
   1957 H         218.7999   41.0388   22.7366 H       279      M_A    0.0000
   1958 H         217.5501   40.5288   23.8789 H       279      M_A    0.0000
   1959 H         217.8672   42.4342   25.0570 H       279      M_A    0.0000
   1960 H         219.4617   41.8503   25.5118 H       279      M_A    0.0000
   1961 C         220.3702   43.8428   24.6894 C.3     280      M_A    0.0000
   1962 C         220.4551   45.3002   24.2458 C.3     280      M_A    0.0000
   1963 O         220.2726   46.1739   25.3599 O.3     280      M_A    0.0000
   1964 H         220.0619   43.7659   25.7375 H       280      M_A    0.0000
   1965 H         221.3631   43.3871   24.6017 H       280      M_A    0.0000
   1966 H         221.4145   45.4886   23.7429 H       280      M_A    0.0000
   1967 H         219.6722   45.5339   23.5134 H       280      M_A    0.0000
   1968 C         219.9337   47.4807   24.9424 C.3     281      M_A    0.0000
   1969 C         218.5085   47.5597   24.4033 C.3     281      M_A    0.0000
   1970 O         217.8775   48.7663   24.8320 O.3     281      M_A    0.0000
   1971 H         220.0787   48.1722   25.7793 H       281      M_A    0.0000
   1972 H         220.6301   47.7717   24.1475 H       281      M_A    0.0000
   1973 H         218.5124   47.4782   23.3068 H       281      M_A    0.0000
   1974 H         217.9023   46.7229   24.7723 H       281      M_A    0.0000
   1975 C         218.8207   49.7980   25.0388 C.3     282      M_A    0.0000
   1976 C         218.2533   51.1721   24.6951 C.3     282      M_A    0.0000
   1977 O         218.6182   52.1277   25.6909 O.3     282      M_A    0.0000
   1978 H         219.1677   49.7621   26.0770 H       282      M_A    0.0000
   1979 H         219.6842   49.5995   24.3937 H       282      M_A    0.0000
   1980 H         218.5937   51.4845   23.6973 H       282      M_A    0.0000
   1981 H         217.1573   51.1447   24.6521 H       282      M_A    0.0000
   1982 C         218.8887   53.3918   25.1201 C.3     283      M_A    0.0000
   1983 C         218.5650   54.5350   26.0774 C.3     283      M_A    0.0000
   1984 O         219.6378   55.4761   26.1140 O.3     283      M_A    0.0000
   1985 H         219.9371   53.4247   24.8052 H       283      M_A    0.0000
   1986 H         218.2693   53.4954   24.2218 H       283      M_A    0.0000
   1987 H         217.6202   55.0168   25.7875 H       283      M_A    0.0000
   1988 H         218.4200   54.1624   27.0991 H       283      M_A    0.0000
   1989 C         219.7022   56.1388   27.3604 C.3     284      M_A    0.0000
   1990 C         220.5948   57.3753   27.3077 C.3     284      M_A    0.0000
   1991 O         219.8074   58.5641   27.3751 O.3     284      M_A    0.0000
   1992 H         218.6873   56.3973   27.6805 H       284      M_A    0.0000
   1993 H         220.1126   55.4363   28.0948 H       284      M_A    0.0000
   1994 H         221.3380   57.3415   28.1173 H       284      M_A    0.0000
   1995 H         221.1625   57.4100   26.3695 H       284      M_A    0.0000
   1996 C         220.3728   59.6034   26.6024 C.3     285      M_A    0.0000
   1997 C         220.7626   60.8066   27.4560 C.3     285      M_A    0.0000
   1998 O         221.9254   61.4416   26.9244 O.3     285      M_A    0.0000
   1999 H         221.2359   59.2118   26.0536 H       285      M_A    0.0000
   2000 H         219.6263   59.9191   25.8646 H       285      M_A    0.0000
   2001 H         219.9205   61.5098   27.5278 H       285      M_A    0.0000
   2002 H         220.9964   60.4999   28.4832 H       285      M_A    0.0000
   2003 C         222.3026   62.5619   27.6987 C.3     286      M_A    0.0000
   2004 C         222.8630   63.6914   26.8395 C.3     286      M_A    0.0000
   2005 O         222.5271   64.9606   27.4000 O.3     286      M_A    0.0000
   2006 H         221.4395   62.9000   28.2821 H       286      M_A    0.0000
   2007 H         223.0745   62.2381   28.4062 H       286      M_A    0.0000
   2008 H         223.9510   63.5790   26.7276 H       286      M_A    0.0000
   2009 H         222.4441   63.6586   25.8260 H       286      M_A    0.0000
   2010 C         222.8029   65.0035   28.7853 C.3     287      M_A    0.0000
   2011 C         223.8941   66.0153   29.1224 C.3     287      M_A    0.0000
   2012 O         223.3271   67.3053   29.3510 O.3     287      M_A    0.0000
   2013 H         221.8773   65.2251   29.3272 H       287      M_A    0.0000
   2014 H         223.1367   64.0061   29.0935 H       287      M_A    0.0000
   2015 H         224.4733   65.6732   29.9921 H       287      M_A    0.0000
   2016 H         224.6085   66.1124   28.2954 H       287      M_A    0.0000
   2017 C         224.3280   68.2941   29.4833 C.3     288      M_A    0.0000
   2018 C         225.0393   68.5714   28.1622 C.3     288      M_A    0.0000
   2019 O         225.2602   69.9720   27.9970 O.3     288      M_A    0.0000
   2020 H         223.8777   69.2064   29.8888 H       288      M_A    0.0000
   2021 H         225.0627   67.9345   30.2128 H       288      M_A    0.0000
   2022 H         225.9831   68.0093   28.1140 H       288      M_A    0.0000
   2023 H         224.4347   68.2316   27.3119 H       288      M_A    0.0000
   2024 C         226.1517   70.4735   28.9720 C.3     289      M_A    0.0000
   2025 C         226.7183   71.8363   28.5849 C.3     289      M_A    0.0000
   2026 O         226.3719   72.8181   29.5616 O.3     289      M_A    0.0000
   2027 H         225.6365   70.5193   29.9374 H       289      M_A    0.0000
   2028 H         226.9785   69.7609   29.0710 H       289      M_A    0.0000
   2029 H         227.8079   71.7707   28.4529 H       289      M_A    0.0000
   2030 H         226.3112   72.1720   27.6230 H       289      M_A    0.0000
   2031 C         226.4276   74.1240   29.0247 C.3     290      M_A    0.0000
   2032 C         225.4421   75.0680   29.7072 C.3     290      M_A    0.0000
   2033 O         226.0055   76.3734   29.8342 O.3     290      M_A    0.0000
   2034 H         227.4535   74.4993   29.1033 H       290      M_A    0.0000
   2035 H         226.1785   74.0612   27.9592 H       290      M_A    0.0000
   2036 H         224.4941   75.0940   29.1507 H       290      M_A    0.0000
   2037 H         225.1969   74.7163   30.7171 H       290      M_A    0.0000
   2038 C         225.2726   77.1667   30.7454 C.3     291      M_A    0.0000
   2039 C         225.3686   78.6540   30.4182 C.3     291      M_A    0.0000
   2040 O         224.0744   79.2560   30.4410 O.3     291      M_A    0.0000
   2041 H         224.2303   76.8304   30.7541 H       291      M_A    0.0000
   2042 H         225.6841   76.9967   31.7469 H       291      M_A    0.0000
   2043 H         226.0541   79.1530   31.1182 H       291      M_A    0.0000
   2044 H         225.7855   78.8092   29.4153 H       291      M_A    0.0000
   2045 C         224.0667   80.4918   29.7556 C.3     292      M_A    0.0000
   2046 C         223.8070   81.6669   30.6936 C.3     292      M_A    0.0000
   2047 O         224.6433   82.7728   30.3539 O.3     292      M_A    0.0000
   2048 H         225.0173   80.6121   29.2251 H       292      M_A    0.0000
   2049 H         223.2700   80.4552   29.0039 H       292      M_A    0.0000
   2050 H         222.7439   81.9463   30.6663 H       292      M_A    0.0000
   2051 H         224.0276   81.3954   31.7334 H       292      M_A    0.0000
   2052 C         224.5542   83.8035   31.3165 C.3     293      M_A    0.0000
   2053 C         225.2742   85.0718   30.8679 C.3     293      M_A    0.0000
   2054 O         224.3531   86.1565   30.7543 O.3     293      M_A    0.0000
   2055 H         223.4987   84.0026   31.5301 H       293      M_A    0.0000
   2056 H         225.0171   83.4414   32.2416 H       293      M_A    0.0000
   2057 H         226.0903   85.3115   31.5646 H       293      M_A    0.0000
   2058 H         225.7399   84.9319   29.8843 H       293      M_A    0.0000
   2059 C         224.9687   87.3917   31.0579 C.3     294      M_A    0.0000
   2060 C         225.2388   88.2216   29.8064 C.3     294      M_A    0.0000
   2061 O         225.0125   89.6070   30.0661 O.3     294      M_A    0.0000
   2062 H         224.3396   87.9397   31.7675 H       294      M_A    0.0000
   2063 H         225.9221   87.1798   31.5553 H       294      M_A    0.0000
   2064 H         226.2626   88.0442   29.4469 H       294      M_A    0.0000
   2065 H         224.5696   87.9272   28.9882 H       294      M_A    0.0000
   2066 C         225.3078   89.9366   31.4081 C.3     295      M_A    0.0000
   2067 C         226.2328   91.1456   31.5122 C.3     295      M_A    0.0000
   2068 O         225.4782   92.3571   31.4828 O.3     295      M_A    0.0000
   2069 H         224.3707   90.1081   31.9484 H       295      M_A    0.0000
   2070 H         225.8013   89.0721   31.8666 H       295      M_A    0.0000
   2071 H         226.8449   91.0778   32.4230 H       295      M_A    0.0000
   2072 H         226.9355   91.1759   30.6702 H       295      M_A    0.0000
   2073 C         226.2214   93.4420   32.0000 C.3     296      M_A    0.0000
   2074 C         226.5739   94.4623   30.9217 C.3     296      M_A    0.0000
   2075 O         225.8735   95.6864   31.1427 O.3     296      M_A    0.0000
   2076 H         225.6555   93.9070   32.8143 H       296      M_A    0.0000
   2077 H         227.1485   93.0424   32.4267 H       296      M_A    0.0000
   2078 H         227.6612   94.6234   30.8926 H       296      M_A    0.0000
   2079 H         226.2900   94.0964   29.9271 H       296      M_A    0.0000
   2080 C         226.2784   96.6862   30.2299 C.3     297      M_A    0.0000
   2081 C         225.6664   98.0449   30.5578 C.3     297      M_A    0.0000
   2082 O         226.6774   98.9608   30.9783 O.3     297      M_A    0.0000
   2083 H         227.3723   96.7377   30.2184 H       297      M_A    0.0000
   2084 H         225.9504   96.3818   29.2294 H       297      M_A    0.0000
   2085 H         225.1128   98.4312   29.6899 H       297      M_A    0.0000
   2086 H         224.9389   97.9609   31.3747 H       297      M_A    0.0000
   2087 C         226.3060  100.2983   30.7137 C.3     298      M_A    0.0000
   2088 C         225.9299  101.0521   31.9859 C.3     298      M_A    0.0000
   2089 O         226.3678  102.4088   31.9118 O.3     298      M_A    0.0000
   2090 H         227.1245  100.7986   30.1852 H       298      M_A    0.0000
   2091 H         225.4397  100.2811   30.0426 H       298      M_A    0.0000
   2092 H         224.8455  100.9908   32.1568 H       298      M_A    0.0000
   2093 H         226.4064  100.6007   32.8651 H       298      M_A    0.0000
   2094 C         225.7325  103.2113   32.8860 C.3     299      M_A    0.0000
   2095 C         225.9493  104.7004   32.6335 C.3     299      M_A    0.0000
   2096 O         224.7308  105.3211   32.2237 O.3     299      M_A    0.0000
   2097 H         224.6655  102.9658   32.9108 H       299      M_A    0.0000
   2098 H         226.1550  102.9523   33.8636 H       299      M_A    0.0000
   2099 H         226.3607  105.1819   33.5323 H       299      M_A    0.0000
   2100 H         226.6842  104.8603   31.8347 H       299      M_A    0.0000
   2101 C         224.9440  106.6547   31.8079 C.3     300      M_A    0.0000
   2102 C         224.2191  107.6574   32.7009 C.3     300      M_A    0.0000
   2103 O         225.0738  108.7565   33.0158 O.3     300      M_A    0.0000
   2104 H         226.0207  106.8536   31.7833 H       300      M_A    0.0000
   2105 H         224.5653  106.7532   30.7841 H       300      M_A    0.0000
   2106 H         223.2928  107.9974   32.2156 H       300      M_A    0.0000
   2107 H         223.9180  107.1933   33.6484 H       300      M_A    0.0000
   2108 C         224.3525  109.9698   33.0836 C.3     301      M_A    0.0000
   2109 C         225.0118  110.9781   34.0200 C.3     301      M_A    0.0000
   2110 O         225.3310  112.1791   33.3174 O.3     301      M_A    0.0000
   2111 H         224.2461  110.3792   32.0734 H       301      M_A    0.0000
   2112 H         223.3472  109.7437   33.4572 H       301      M_A    0.0000
   2113 H         224.3584  111.1801   34.8809 H       301      M_A    0.0000
   2114 H         225.9478  110.5790   34.4304 H       301      M_A    0.0000
   2115 C         225.3167  113.3006   34.1771 C.3     302      M_A    0.0000
   2116 C         225.5865  114.6020   33.4276 C.3     302      M_A    0.0000
   2117 O         224.6868  115.6233   33.8583 O.3     302      M_A    0.0000
   2118 H         224.3552  113.3376   34.7002 H       302      M_A    0.0000
   2119 H         226.0990  113.1571   34.9312 H       302      M_A    0.0000
   2120 H         226.6337  114.9082   33.5636 H       302      M_A    0.0000
   2121 H         225.4416  114.4706   32.3480 H       302      M_A    0.0000
   2122 C         225.3548  116.6197   34.6052 C.3     303      M_A    0.0000
   2123 C         224.7187  117.9949   34.4257 C.3     303      M_A    0.0000
   2124 O         223.6559  118.1806   35.3606 O.3     303      M_A    0.0000
   2125 H         225.3698  116.3257   35.6601 H       303      M_A    0.0000
   2126 H         226.3936  116.6615   34.2580 H       303      M_A    0.0000
   2127 H         225.4806  118.7814   34.5251 H       303      M_A    0.0000
   2128 H         224.2940  118.1027   33.4199 H       303      M_A    0.0000
   2129 C         222.7052  119.1114   34.8846 C.3     304      M_A    0.0000
   2130 C         222.2177  118.7671   33.4803 C.3     304      M_A    0.0000
   2131 O         220.8294  119.0703   33.3441 O.3     304      M_A    0.0000
   2132 H         221.8701  119.1625   35.5915 H       304      M_A    0.0000
   2133 H         223.1815  120.0983   34.8625 H       304      M_A    0.0000
   2134 H         222.8188  119.2991   32.7289 H       304      M_A    0.0000
   2135 H         222.3421  117.6969   33.2730 H       304      M_A    0.0000
   2136 C         220.5521  120.4042   33.7192 C.3     305      M_A    0.0000
   2137 C         219.6412  121.1053   32.7157 C.3     305      M_A    0.0000
   2138 O         218.2956  121.1280   33.1920 O.3     305      M_A    0.0000
   2139 H         220.1130  120.4094   34.7225 H       305      M_A    0.0000
   2140 H         221.5043  120.9445   33.7714 H       305      M_A    0.0000
   2141 H         220.0107  122.1208   32.5127 H       305      M_A    0.0000
   2142 H         219.6400  120.5796   31.7527 H       305      M_A    0.0000
   2143 C         218.1436  122.0291   34.2698 C.3     306      M_A    0.0000
   2144 C         216.8074  122.7641   34.2195 C.3     306      M_A    0.0000
   2145 O         215.8654  122.1507   35.0995 O.3     306      M_A    0.0000
   2146 H         218.2588  121.4823   35.2117 H       306      M_A    0.0000
   2147 H         218.9548  122.7639   34.2117 H       306      M_A    0.0000
   2148 H         216.9494  123.8268   34.4635 H       306      M_A    0.0000
   2149 H         216.3807  122.7343   33.2091 H       306      M_A    0.0000
   2150 C         214.8428  123.0520   35.4721 C.3     307      M_A    0.0000
   2151 C         213.5835  122.8718   34.6295 C.3     307      M_A    0.0000
   2152 O         212.4311  123.3029   35.3533 O.3     307      M_A    0.0000
   2153 H         214.6264  122.9260   36.5383 H       307      M_A    0.0000
   2154 H         215.2224  124.0702   35.3290 H       307      M_A    0.0000
   2155 H         213.6833  123.4127   33.6775 H       307      M_A    0.0000
   2156 H         213.4326  121.8165   34.3699 H       307      M_A    0.0000
   2157 C         212.0074  124.5846   34.9353 C.3     308      M_A    0.0000
   2158 C         211.1800  125.2926   36.0041 C.3     308      M_A    0.0000
   2159 O         211.4319  126.6976   35.9830 O.3     308      M_A    0.0000
   2160 H         212.8849  125.1780   34.6573 H       308      M_A    0.0000
   2161 H         211.3931  124.4599   34.0362 H       308      M_A    0.0000
   2162 H         210.1114  125.0758   35.8622 H       308      M_A    0.0000
   2163 H         211.4380  124.9276   37.0061 H       308      M_A    0.0000
   2164 C         210.6806  127.3427   34.9749 C.3     309      M_A    0.0000
   2165 C         209.5029  128.1251   35.5485 C.3     309      M_A    0.0000
   2166 O         209.8233  129.5129   35.6448 O.3     309      M_A    0.0000
   2167 H         211.3441  127.9944   34.3966 H       309      M_A    0.0000
   2168 H         210.2975  126.5728   34.2953 H       309      M_A    0.0000
   2169 H         208.6050  127.9636   34.9347 H       309      M_A    0.0000
   2170 H         209.2532  127.7748   36.5578 H       309      M_A    0.0000
   2171 C         208.8223  130.2278   36.3403 C.3     310      M_A    0.0000
   2172 C         209.1891  131.6974   36.5241 C.3     310      M_A    0.0000
   2173 O         208.0335  132.5233   36.3819 O.3     310      M_A    0.0000
   2174 H         207.8715  130.1214   35.8072 H       310      M_A    0.0000
   2175 H         208.7025  129.7661   37.3271 H       310      M_A    0.0000
   2176 H         209.6712  131.8489   37.5006 H       310      M_A    0.0000
   2177 H         209.9170  132.0179   35.7683 H       310      M_A    0.0000
   2178 C         206.9205  131.9766   37.0595 C.3     311      M_A    0.0000
   2179 C         206.3293  132.9522   38.0728 C.3     311      M_A    0.0000
   2180 O         205.2251  133.6562   37.5044 O.3     311      M_A    0.0000
   2181 H         206.1703  131.6680   36.3237 H       311      M_A    0.0000
   2182 H         207.2562  131.0769   37.5878 H       311      M_A    0.0000
   2183 H         206.0346  132.4175   38.9872 H       311      M_A    0.0000
   2184 H         207.0726  133.6990   38.3787 H       311      M_A    0.0000
   2185 C         204.9774  134.8682   38.1876 C.3     312      M_A    0.0000
   2186 C         206.0396  135.9224   37.8899 C.3     312      M_A    0.0000
   2187 O         205.4283  137.1709   37.5651 O.3     312      M_A    0.0000
   2188 H         203.9775  135.2290   37.9240 H       312      M_A    0.0000
   2189 H         204.9804  134.6556   39.2628 H       312      M_A    0.0000
   2190 H         206.7245  136.0228   38.7441 H       312      M_A    0.0000
   2191 H         206.6573  135.6263   37.0328 H       312      M_A    0.0000
   2192 C         204.7158  137.6996   38.6650 C.3     313      M_A    0.0000
   2193 C         205.1753  139.1100   39.0223 C.3     313      M_A    0.0000
   2194 O         204.4028  140.0817   38.3175 O.3     313      M_A    0.0000
   2195 H         203.6441  137.6780   38.4403 H       313      M_A    0.0000
   2196 H         204.8874  137.0422   39.5251 H       313      M_A    0.0000
   2197 H         205.1165  139.2643   40.1094 H       313      M_A    0.0000
   2198 H         206.2262  139.2624   38.7460 H       313      M_A    0.0000
   2199 C         205.2128  141.1323   37.8304 C.3     314      M_A    0.0000
   2200 C         205.0299  142.4174   38.6325 C.3     314      M_A    0.0000
   2201 O         206.1880  143.2448   38.5228 O.3     314      M_A    0.0000
   2202 H         206.2591  140.8086   37.8355 H       314      M_A    0.0000
   2203 H         204.9293  141.3211   36.7887 H       314      M_A    0.0000
   2204 H         204.1264  142.9477   38.2987 H       314      M_A    0.0000
   2205 H         204.8826  142.1979   39.6973 H       314      M_A    0.0000
   2206 C         206.2413  143.8964   37.2700 C.3     315      M_A    0.0000
   2207 C         205.1118  144.9082   37.1005 C.3     315      M_A    0.0000
   2208 O         205.4793  146.1675   37.6634 O.3     315      M_A    0.0000
   2209 H         207.2203  144.3743   37.1572 H       315      M_A    0.0000
   2210 H         206.1533  143.1327   36.4889 H       315      M_A    0.0000
   2211 H         204.8472  145.0071   36.0379 H       315      M_A    0.0000
   2212 H         204.2028  144.5714   37.6144 H       315      M_A    0.0000
   2213 C         204.3526  147.0004   37.8475 C.3     316      M_A    0.0000
   2214 C         204.4613  147.8413   39.1160 C.3     316      M_A    0.0000
   2215 O         205.0383  149.1142   38.8247 O.3     316      M_A    0.0000
   2216 H         204.2281  147.6338   36.9627 H       316      M_A    0.0000
   2217 H         203.4676  146.3582   37.9226 H       316      M_A    0.0000
   2218 H         203.4732  147.9484   39.5862 H       316      M_A    0.0000
   2219 H         205.1041  147.3513   39.8579 H       316      M_A    0.0000
   2220 C         206.0276  149.4626   39.7717 C.3     317      M_A    0.0000
   2221 C         206.7694  150.7384   39.3842 C.3     317      M_A    0.0000
   2222 O         206.8158  151.6447   40.4862 O.3     317      M_A    0.0000
   2223 H         205.5599  149.5610   40.7572 H       317      M_A    0.0000
   2224 H         206.7466  148.6372   39.8270 H       317      M_A    0.0000
   2225 H         207.7792  150.4955   39.0234 H       317      M_A    0.0000
   2226 H         206.2621  151.2518   38.5578 H       317      M_A    0.0000
   2227 C         206.8245  152.9888   40.0504 C.3     318      M_A    0.0000
   2228 C         207.6984  153.8735   40.9347 C.3     318      M_A    0.0000
   2229 O         208.4871  154.7557   40.1363 O.3     318      M_A    0.0000
   2230 H         207.1548  153.0240   39.0067 H       318      M_A    0.0000
   2231 H         205.7941  153.3609   40.0846 H       318      M_A    0.0000
   2232 H         207.0747  154.4303   41.6488 H       318      M_A    0.0000
   2233 H         208.3888  153.2682   41.5353 H       318      M_A    0.0000
   2234 C         209.4356  155.4525   40.9185 C.3     319      M_A    0.0000
   2235 C         210.5414  154.5352   41.4320 C.3     319      M_A    0.0000
   2236 O         211.6102  155.3018   41.9869 O.3     319      M_A    0.0000
   2237 H         209.8486  156.2775   40.3283 H       319      M_A    0.0000
   2238 H         208.9102  155.8888   41.7757 H       319      M_A    0.0000
   2239 H         210.1351  153.8253   42.1667 H       319      M_A    0.0000
   2240 H         210.9594  153.9302   40.6176 H       319      M_A    0.0000
   2241 C         211.1277  156.4289   42.6896 C.3     320      M_A    0.0000
   2242 C         212.0278  156.8018   43.8639 C.3     320      M_A    0.0000
   2243 O         212.6729  158.0522   43.6225 O.3     320      M_A    0.0000
   2244 H         211.0209  157.2662   41.9919 H       320      M_A    0.0000
   2245 H         210.1294  156.1860   43.0713 H       320      M_A    0.0000
   2246 H         211.4452  156.8259   44.7960 H       320      M_A    0.0000
   2247 H         212.8132  156.0500   44.0108 H       320      M_A    0.0000
   2248 C         213.2129  158.5936   44.8109 C.3     321      M_A    0.0000
   2249 C         214.2551  159.6718   44.5289 C.3     321      M_A    0.0000
   2250 O         213.6249  160.9369   44.3286 O.3     321      M_A    0.0000
   2251 H         212.3971  158.9842   45.4285 H       321      M_A    0.0000
   2252 H         213.6884  157.7777   45.3672 H       321      M_A    0.0000
   2253 H         214.9875  159.7151   45.3479 H       321      M_A    0.0000
   2254 H         214.8233  159.4401   43.6194 H       321      M_A    0.0000
   2255 C         213.4644  161.2229   42.9541 C.3     322      M_A    0.0000
   2256 C         213.2521  162.7121   42.6985 C.3     322      M_A    0.0000
   2257 O         213.8985  163.1096   41.4893 O.3     322      M_A    0.0000
   2258 H         214.3361  160.8483   42.4070 H       322      M_A    0.0000
   2259 H         212.5867  160.6730   42.5957 H       322      M_A    0.0000
   2260 H         212.1775  162.9432   42.6722 H       322      M_A    0.0000
   2261 H         213.6769  163.3144   43.5113 H       322      M_A    0.0000
   2262 C         214.0506  164.5128   41.4213 C.3     323      M_A    0.0000
   2263 C         213.2281  165.1253   40.2914 C.3     323      M_A    0.0000
   2264 O         212.6478  166.3613   40.7080 O.3     323      M_A    0.0000
   2265 H         213.7797  164.9490   42.3887 H       323      M_A    0.0000
   2266 H         215.1106  164.7287   41.2455 H       323      M_A    0.0000
   2267 H         213.8527  165.2585   39.3964 H       323      M_A    0.0000
   2268 H         212.4071  164.4594   39.9979 H       323      M_A    0.0000
   2269 C         212.1948  167.1181   39.6039 C.3     324      M_A    0.0000
   2270 C         211.8909  168.5640   39.9849 C.3     324      M_A    0.0000
   2271 O         213.0608  169.3719   39.8566 O.3     324      M_A    0.0000
   2272 H         212.9429  167.0685   38.8056 H       324      M_A    0.0000
   2273 H         211.2777  166.6502   39.2282 H       324      M_A    0.0000
   2274 H         211.0667  168.9532   39.3700 H       324      M_A    0.0000
   2275 H         211.5566  168.6333   41.0276 H       324      M_A    0.0000
   2276 C         214.0058  169.0775   40.8652 C.3     325      M_A    0.0000
   2277 C         214.7928  170.3128   41.2927 C.3     325      M_A    0.0000
   2278 O         214.3272  170.7909   42.5546 O.3     325      M_A    0.0000
   2279 H         213.4890  168.6235   41.7175 H       325      M_A    0.0000
   2280 H         214.7039  168.3329   40.4659 H       325      M_A    0.0000
   2281 H         215.8682  170.0859   41.3231 H       325      M_A    0.0000
   2282 H         214.6701  171.1269   40.5674 H       325      M_A    0.0000
   2283 C         214.9490  172.0098   42.9074 C.3     326      M_A    0.0000
   2284 C         214.5046  173.1616   42.0106 C.3     326      M_A    0.0000
   2285 O         214.8992  174.4136   42.5716 O.3     326      M_A    0.0000
   2286 H         214.7403  172.2258   43.9606 H       326      M_A    0.0000
   2287 H         216.0321  171.8778   42.8044 H       326      M_A    0.0000
   2288 H         214.9107  173.0318   40.9971 H       326      M_A    0.0000
   2289 H         213.4127  173.1784   41.9052 H       326      M_A    0.0000
   2290 C         216.1431  174.3143   43.2346 C.3     327      M_A    0.0000
   2291 C         217.1749  175.2851   42.6681 C.3     327      M_A    0.0000
   2292 O         217.8216  175.9992   43.7215 O.3     327      M_A    0.0000
   2293 H         215.9910  174.4802   44.3065 H       327      M_A    0.0000
   2294 H         216.5122  173.2902   43.1069 H       327      M_A    0.0000
   2295 H         217.9026  174.7449   42.0456 H       327      M_A    0.0000
   2296 H         216.6990  176.0256   42.0131 H       327      M_A    0.0000
   2297 C         218.6458  177.0304   43.2174 C.3     328      M_A    0.0000
   2298 C         218.6636  178.2507   44.1332 C.3     328      M_A    0.0000
   2299 O         219.8789  178.9815   43.9697 O.3     328      M_A    0.0000
   2300 H         219.6563  176.6371   43.0632 H       328      M_A    0.0000
   2301 H         218.2529  177.3276   42.2383 H       328      M_A    0.0000
   2302 H         217.7866  178.8844   43.9381 H       328      M_A    0.0000
   2303 H         218.5994  177.9517   45.1869 H       328      M_A    0.0000
   2304 C         219.8242  179.8302   42.8411 C.3     329      M_A    0.0000
   2305 C         219.5786  181.2855   43.2285 C.3     329      M_A    0.0000
   2306 O         220.7800  182.0464   43.1032 O.3     329      M_A    0.0000
   2307 H         220.7523  179.7246   42.2693 H       329      M_A    0.0000
   2308 H         219.0010  179.4895   42.2028 H       329      M_A    0.0000
   2309 H         218.7705  181.7101   42.6157 H       329      M_A    0.0000
   2310 H         219.2477  181.3635   44.2717 H       329      M_A    0.0000
   2311 C         220.6646  183.3035   43.7381 C.3     330      M_A    0.0000
   2312 C         221.9025  184.1699   43.5256 C.3     330      M_A    0.0000
   2313 O         222.1968  184.2894   42.1338 O.3     330      M_A    0.0000
   2314 H         219.7626  183.8066   43.3734 H       330      M_A    0.0000
   2315 H         220.5348  183.1279   44.8122 H       330      M_A    0.0000
   2316 H         221.7598  185.1561   43.9903 H       330      M_A    0.0000
   2317 H         222.7807  183.7252   44.0100 H       330      M_A    0.0000
   2318 C         223.5299  184.7071   41.9211 C.3     331      M_A    0.0000
   2319 C         223.8546  184.8576   40.4379 C.3     331      M_A    0.0000
   2320 O         224.3290  186.1752   40.1606 O.3     331      M_A    0.0000
   2321 H         223.7009  185.6449   42.4604 H       331      M_A    0.0000
   2322 H         224.1934  183.9499   42.3543 H       331      M_A    0.0000
   2323 H         224.5860  184.0964   40.1303 H       331      M_A    0.0000
   2324 H         222.9617  184.6936   39.8219 H       331      M_A    0.0000
   2325 C         224.5246  186.9151   41.3485 C.3     332      M_A    0.0000
   2326 C         225.6381  187.9483   41.2046 C.3     332      M_A    0.0000
   2327 O         225.5135  188.9609   42.2030 O.3     332      M_A    0.0000
   2328 H         223.5796  187.3896   41.6337 H       332      M_A    0.0000
   2329 H         224.7950  186.2109   42.1436 H       332      M_A    0.0000
   2330 H         226.6205  187.4569   41.2539 H       332      M_A    0.0000
   2331 H         225.5901  188.4435   40.2267 H       332      M_A    0.0000
   2332 C         226.4188  190.0226   41.9788 C.3     333      M_A    0.0000
   2333 C         226.1250  191.2256   42.8702 C.3     333      M_A    0.0000
   2334 O         226.6832  191.0336   44.1700 O.3     333      M_A    0.0000
   2335 H         227.4407  189.6588   42.1300 H       333      M_A    0.0000
   2336 H         226.3274  190.3276   40.9301 H       333      M_A    0.0000
   2337 H         226.5055  192.1456   42.4035 H       333      M_A    0.0000
   2338 H         225.0442  191.3674   42.9945 H       333      M_A    0.0000
   2339 C         226.7480  192.2481   44.8895 C.3     334      M_A    0.0000
   2340 C         225.6447  192.3538   45.9381 C.3     334      M_A    0.0000
   2341 O         226.0974  191.8478   47.1938 O.3     334      M_A    0.0000
   2342 H         227.7387  192.3396   45.3476 H       334      M_A    0.0000
   2343 H         226.6367  193.0704   44.1735 H       334      M_A    0.0000
   2344 H         225.3034  193.3953   46.0263 H       334      M_A    0.0000
   2345 H         224.7663  191.7657   45.6444 H       334      M_A    0.0000
   2346 C         225.0412  191.7641   48.1289 C.3     335      M_A    0.0000
   2347 C         224.0427  190.6674   47.7704 C.3     335      M_A    0.0000
   2348 O         223.4387  190.1356   48.9495 O.3     335      M_A    0.0000
   2349 H         225.4603  191.6058   49.1283 H       335      M_A    0.0000
   2350 H         224.5208  192.7286   48.1367 H       335      M_A    0.0000
   2351 H         223.2858  191.0562   47.0740 H       335      M_A    0.0000
   2352 H         224.5400  189.8375   47.2531 H       335      M_A    0.0000
   2353 C         222.3780  190.9529   49.4010 C.3     336      M_A    0.0000
   2354 C         221.1950  190.9425   48.4375 C.3     336      M_A    0.0000
   2355 O         219.9633  191.0047   49.1564 O.3     336      M_A    0.0000
   2356 H         222.0757  190.6257   50.4016 H       336      M_A    0.0000
   2357 H         222.7558  191.9781   49.4876 H       336      M_A    0.0000
   2358 H         221.2820  191.7718   47.7208 H       336      M_A    0.0000
   2359 H         221.1816  190.0210   47.8421 H       336      M_A    0.0000
   2360 C         218.8764  191.2834   48.2973 C.3     337      M_A    0.0000
   2361 C         218.0394  192.4588   48.7932 C.3     337      M_A    0.0000
   2362 O         217.5387  193.2165   47.6918 O.3     337      M_A    0.0000
   2363 H         219.2575  191.4677   47.2872 H       337      M_A    0.0000
   2364 H         218.2430  190.3900   48.2547 H       337      M_A    0.0000
   2365 H         217.2225  192.0989   49.4352 H       337      M_A    0.0000
   2366 H         218.6414  193.1364   49.4114 H       337      M_A    0.0000
   2367 C         217.7616  194.6003   47.8721 C.3     338      M_A    0.0000
   2368 C         216.4828  195.4149   47.7005 C.3     338      M_A    0.0000
   2369 O         216.4974  196.5559   48.5583 O.3     338      M_A    0.0000
   2370 H         218.2057  194.7650   48.8596 H       338      M_A    0.0000
   2371 H         218.4919  194.9245   47.1219 H       338      M_A    0.0000
   2372 H         216.3576  195.7074   46.6480 H       338      M_A    0.0000
   2373 H         215.5996  194.8188   47.9617 H       338      M_A    0.0000
   2374 C         215.2516  197.2227   48.5532 C.3     339      M_A    0.0000
   2375 C         215.3583  198.6430   49.1004 C.3     339      M_A    0.0000
   2376 O         215.3296  199.5932   48.0354 O.3     339      M_A    0.0000
   2377 H         214.8494  197.2208   47.5344 H       339      M_A    0.0000
   2378 H         214.5607  196.6509   49.1833 H       339      M_A    0.0000
   2379 H         214.5542  198.8315   49.8262 H       339      M_A    0.0000
   2380 H         216.3018  198.7851   49.6421 H       339      M_A    0.0000
   2381 C         216.0003  200.7859   48.3881 C.3     340      M_A    0.0000
   2382 C         215.4347  202.0003   47.6577 C.3     340      M_A    0.0000
   2383 O         215.4659  203.1512   48.5016 O.3     340      M_A    0.0000
   2384 H         215.9475  200.9178   49.4741 H       340      M_A    0.0000
   2385 H         217.0566  200.6707   48.1193 H       340      M_A    0.0000
   2386 H         215.9891  202.1738   46.7241 H       340      M_A    0.0000
   2387 H         214.3896  201.8329   47.3688 H       340      M_A    0.0000
   2388 C         214.7457  204.2272   47.9355 C.3     341      M_A    0.0000
   2389 C         215.3029  205.5808   48.3662 C.3     341      M_A    0.0000
   2390 O         215.6931  206.3470   47.2266 O.3     341      M_A    0.0000
   2391 H         214.7511  204.1264   46.8449 H       341      M_A    0.0000
   2392 H         213.7050  204.1495   48.2703 H       341      M_A    0.0000
   2393 H         214.5630  206.1192   48.9757 H       341      M_A    0.0000
   2394 H         216.1911  205.4566   48.9982 H       341      M_A    0.0000
   2395 C         216.3787  207.5235   47.6044 C.3     342      M_A    0.0000
   2396 C         215.6322  208.7846   47.1796 C.3     342      M_A    0.0000
   2397 O         215.5785  209.7209   48.2558 O.3     342      M_A    0.0000
   2398 H         216.5450  207.5082   48.6868 H       342      M_A    0.0000
   2399 H         217.3609  207.5121   47.1180 H       342      M_A    0.0000
   2400 H         216.1057  209.2245   46.2901 H       342      M_A    0.0000
   2401 H         214.5985  208.5517   46.8949 H       342      M_A    0.0000
   2402 C         216.7147  209.6163   49.0895 C.3     343      M_A    0.0000
   2403 C         217.6832  210.7780   48.8886 C.3     343      M_A    0.0000
   2404 O         217.4335  211.8088   49.8441 O.3     343      M_A    0.0000
   2405 H         216.3876  209.5502   50.1327 H       343      M_A    0.0000
   2406 H         217.2283  208.6798   48.8432 H       343      M_A    0.0000
   2407 H         218.7215  210.4211   48.9476 H       343      M_A    0.0000
   2408 H         217.5654  211.2193   47.8910 H       343      M_A    0.0000
   2409 C         218.6072  212.5401   50.1347 C.3     344      M_A    0.0000
   2410 C         218.3198  214.0217   50.3593 C.3     344      M_A    0.0000
   2411 O         217.9277  214.2560   51.7117 O.3     344      M_A    0.0000
   2412 H         219.0981  212.0960   51.0073 H       344      M_A    0.0000
   2413 H         219.2886  212.4363   49.2825 H       344      M_A    0.0000
   2414 H         219.1984  214.6241   50.0875 H       344      M_A    0.0000
   2415 H         217.5001  214.3645   49.7155 H       344      M_A    0.0000
   2416 C         217.8727  213.0526   52.4503 C.3     345      M_A    0.0000
   2417 C         217.1741  213.2352   53.7944 C.3     345      M_A    0.0000
   2418 O         215.7568  213.1751   53.6341 O.3     345      M_A    0.0000
   2419 H         217.3752  212.2856   51.8472 H       345      M_A    0.0000
   2420 H         218.9015  212.7188   52.6279 H       345      M_A    0.0000
   2421 H         217.5277  212.4805   54.5116 H       345      M_A    0.0000
   2422 H         217.4140  214.2123   54.2320 H       345      M_A    0.0000
   2423 C         215.1104  214.2020   54.3582 C.3     346      M_A    0.0000
   2424 C         215.7879  215.5554   54.1641 C.3     346      M_A    0.0000
   2425 O         214.8749  216.6167   54.4434 O.3     346      M_A    0.0000
   2426 H         214.0572  214.2409   54.0603 H       346      M_A    0.0000
   2427 H         215.1446  213.9376   55.4213 H       346      M_A    0.0000
   2428 H         216.6859  215.6241   54.7948 H       346      M_A    0.0000
   2429 H         216.1285  215.6789   53.1285 H       346      M_A    0.0000
   2430 C         214.6050  216.7162   55.8269 C.3     347      M_A    0.0000
   2431 C         215.4656  217.7783   56.5047 C.3     347      M_A    0.0000
   2432 O         214.6512  218.6762   57.2586 O.3     347      M_A    0.0000
   2433 H         213.5386  216.9217   55.9691 H       347      M_A    0.0000
   2434 H         214.8186  215.7427   56.2828 H       347      M_A    0.0000
   2435 H         216.2275  217.3017   57.1383 H       347      M_A    0.0000
   2436 H         216.0111  218.3742   55.7623 H       347      M_A    0.0000
   2437 C         215.4355  219.6034   57.9811 C.3     348      M_A    0.0000
   2438 C         215.0919  221.0467   57.6249 C.3     348      M_A    0.0000
   2439 O         215.1784  221.8814   58.7797 O.3     348      M_A    0.0000
   2440 H         215.3086  219.4199   59.0534 H       348      M_A    0.0000
   2441 H         216.4875  219.4184   57.7354 H       348      M_A    0.0000
   2442 H         215.7505  221.4064   56.8213 H       348      M_A    0.0000
   2443 H         214.0670  221.1228   57.2405 H       348      M_A    0.0000
   2444 C         214.2815  222.9705   58.6991 C.3     349      M_A    0.0000
   2445 C         214.8656  224.2415   59.3086 C.3     349      M_A    0.0000
   2446 O         214.6610  225.3539   58.4377 O.3     349      M_A    0.0000
   2447 H         214.0022  223.1266   57.6516 H       349      M_A    0.0000
   2448 H         213.3722  222.6995   59.2478 H       349      M_A    0.0000
   2449 H         214.4261  224.4236   60.2999 H       349      M_A    0.0000
   2450 H         215.9469  224.1411   59.4647 H       349      M_A    0.0000
   2451 C         213.3176  225.4331   58.0066 C.3     350      M_A    0.0000
   2452 C         212.6180  226.6823   58.5342 C.3     350      M_A    0.0000
   2453 O         212.5401  227.6800   57.5162 O.3     350      M_A    0.0000
   2454 H         213.2907  225.3974   56.9123 H       350      M_A    0.0000
   2455 H         212.7910  224.5474   58.3801 H       350      M_A    0.0000
   2456 H         211.6206  226.4248   58.9188 H       350      M_A    0.0000
   2457 H         213.1708  227.1154   59.3771 H       350      M_A    0.0000
   2458 C         211.6000  228.6824   57.8452 C.3     351      M_A    0.0000
   2459 C         212.0264  230.0575   57.3398 C.3     351      M_A    0.0000
   2460 O         210.9092  230.7586   56.7937 O.3     351      M_A    0.0000
   2461 H         210.6210  228.3998   57.4437 H       351      M_A    0.0000
   2462 H         211.5129  228.7173   58.9372 H       351      M_A    0.0000
   2463 H         212.5001  230.6296   58.1505 H       351      M_A    0.0000
   2464 H         212.7782  229.9681   56.5457 H       351      M_A    0.0000
   2465 C         210.1920  231.4497   57.7961 C.3     352      M_A    0.0000
   2466 C         210.1209  232.9488   57.5211 C.3     352      M_A    0.0000
   2467 O         208.8081  233.3186   57.0996 O.3     352      M_A    0.0000
   2468 H         209.1902  231.0156   57.8823 H       352      M_A    0.0000
   2469 H         210.7064  231.2883   58.7504 H       352      M_A    0.0000
   2470 H         210.4283  233.5133   58.4131 H       352      M_A    0.0000
   2471 H         210.8154  233.2345   56.7212 H       352      M_A    0.0000
   2472 C         208.7929  234.6114   56.5292 C.3     353      M_A    0.0000
   2473 C         207.8168  235.5423   57.2426 C.3     353      M_A    0.0000
   2474 O         208.4813  236.7306   57.6718 O.3     353      M_A    0.0000
   2475 H         209.8092  235.0195   56.5419 H       353      M_A    0.0000
   2476 H         208.4880  234.5138   55.4810 H       353      M_A    0.0000
   2477 H         206.9658  235.7748   56.5864 H       353      M_A    0.0000
   2478 H         207.3959  235.0610   58.1342 H       353      M_A    0.0000
   2479 C         207.9028  237.2491   58.8522 C.3     354      M_A    0.0000
   2480 C         208.5012  238.5981   59.2401 C.3     354      M_A    0.0000
   2481 O         207.5012  239.4447   59.8068 O.3     354      M_A    0.0000
   2482 H         206.8185  237.3219   58.7165 H       354      M_A    0.0000
   2483 H         208.0883  236.5331   59.6610 H       354      M_A    0.0000
   2484 H         209.3431  238.4547   59.9326 H       354      M_A    0.0000
   2485 H         208.9090  239.1138   58.3618 H       354      M_A    0.0000
   2486 C         207.6684  239.5793   61.2036 C.3     355      M_A    0.0000
   2487 C         207.4841  241.0212   61.6675 C.3     355      M_A    0.0000
   2488 O         206.1469  241.2346   62.1192 O.3     355      M_A    0.0000
   2489 H         206.9696  238.9076   61.7135 H       355      M_A    0.0000
   2490 H         208.6843  239.2533   61.4543 H       355      M_A    0.0000
   2491 H         208.2148  241.2635   62.4526 H       355      M_A    0.0000
   2492 H         207.6697  241.7246   60.8462 H       355      M_A    0.0000
   2493 C         205.6722  242.5119   61.7450 C.3     356      M_A    0.0000
   2494 C         204.3328  242.8406   62.3977 C.3     356      M_A    0.0000
   2495 O         204.1504  244.2540   62.4817 O.3     356      M_A    0.0000
   2496 H         206.4293  243.2623   61.9966 H       356      M_A    0.0000
   2497 H         205.5472  242.5194   60.6561 H       356      M_A    0.0000
   2498 H         203.5126  242.3639   61.8419 H       356      M_A    0.0000
   2499 H         204.2854  242.4421   63.4189 H       356      M_A    0.0000
   2500 C         202.8010  244.5871   62.7368 C.3     357      M_A    0.0000
   2501 C         202.4267  245.9490   62.1595 C.3     357      M_A    0.0000
   2502 O         201.3325  245.8240   61.2512 O.3     357      M_A    0.0000
   2503 H         202.1562  243.7974   62.3367 H       357      M_A    0.0000
   2504 H         202.6596  244.6116   63.8234 H       357      M_A    0.0000
   2505 H         202.1946  246.6542   62.9705 H       357      M_A    0.0000
   2506 H         203.2668  246.3841   61.6038 H       357      M_A    0.0000
   2507 C         201.4378  246.7450   60.1847 C.3     358      M_A    0.0000
   2508 C         200.1262  247.4822   59.9312 C.3     358      M_A    0.0000
   2509 O         200.3362  248.8942   59.9379 O.3     358      M_A    0.0000
   2510 H         202.2510  247.4470   60.3977 H       358      M_A    0.0000
   2511 H         201.7105  246.1859   59.2823 H       358      M_A    0.0000
   2512 H         199.6806  247.1487   58.9829 H       358      M_A    0.0000
   2513 H         199.3910  247.2558   60.7135 H       358      M_A    0.0000
   2514 C         199.1126  249.5994   59.8890 C.3     359      M_A    0.0000
   2515 C         199.3225  251.1050   59.7582 C.3     359      M_A    0.0000
   2516 O         199.2960  251.4967   58.3857 O.3     359      M_A    0.0000
   2517 H         198.5091  249.2110   59.0617 H       359      M_A    0.0000
   2518 H         198.5694  249.3966   60.8191 H       359      M_A    0.0000
   2519 H         198.5648  251.6461   60.3431 H       359      M_A    0.0000
   2520 H         200.2967  251.4025   60.1659 H       359      M_A    0.0000
   2521 C         200.1697  252.5798   58.1399 C.3     360      M_A    0.0000
   2522 C         199.5292  253.6447   57.2546 C.3     360      M_A    0.0000
   2523 O         199.7910  254.9492   57.7716 O.3     360      M_A    0.0000
   2524 H         200.4921  253.0032   59.0972 H       360      M_A    0.0000
   2525 H         201.0596  252.1870   57.6348 H       360      M_A    0.0000
   2526 H         199.8888  253.5448   56.2203 H       360      M_A    0.0000
   2527 H         198.4399  253.5194   57.2154 H       360      M_A    0.0000
   2528 C         198.7312  255.8401   57.4887 C.3     361      M_A    0.0000
   2529 C         199.1219  257.2942   57.7361 C.3     361      M_A    0.0000
   2530 O         198.3088  258.1706   56.9559 O.3     361      M_A    0.0000
   2531 H         198.4041  255.6892   56.4544 H       361      M_A    0.0000
   2532 H         197.8906  255.5825   58.1431 H       361      M_A    0.0000
   2533 H         199.0493  257.5295   58.8077 H       361      M_A    0.0000
   2534 H         200.1660  257.4741   57.4512 H       361      M_A    0.0000
   2535 C         197.0611  258.4072   57.5756 C.3     362      M_A    0.0000
   2536 C         197.2031  259.2143   58.8627 C.3     362      M_A    0.0000
   2537 O         196.5422  260.4736   58.7392 O.3     362      M_A    0.0000
   2538 H         196.3985  258.9113   56.8640 H       362      M_A    0.0000
   2539 H         196.6136  257.4355   57.8140 H       362      M_A    0.0000
   2540 H         196.8134  258.6401   59.7156 H       362      M_A    0.0000
   2541 H         198.2583  259.4174   59.0843 H       362      M_A    0.0000
   2542 C         196.4050  261.1108   59.9930 C.3     363      M_A    0.0000
   2543 C         195.1427  261.9646   60.0681 C.3     363      M_A    0.0000
   2544 O         194.4480  261.7243   61.2919 O.3     363      M_A    0.0000
   2545 H         196.4167  260.3520   60.7827 H       363      M_A    0.0000
   2546 H         197.2787  261.7560   60.1405 H       363      M_A    0.0000
   2547 H         195.3966  263.0283   59.9547 H       363      M_A    0.0000
   2548 H         194.4558  261.7227   59.2475 H       363      M_A    0.0000
   2549 C         193.0686  262.0047   61.1673 C.3     364      M_A    0.0000
   2550 C         192.2018  260.8936   61.7523 C.3     364      M_A    0.0000
   2551 O         191.0864  261.4449   62.4522 O.3     364      M_A    0.0000
   2552 H         192.8548  262.9663   61.6459 H       364      M_A    0.0000
   2553 H         192.8407  262.1075   60.1002 H       364      M_A    0.0000
   2554 H         191.8756  260.2082   60.9569 H       364      M_A    0.0000
   2555 H         192.7711  260.2869   62.4676 H       364      M_A    0.0000
   2556 C         190.5094  262.5206   61.7402 C.3     365      M_A    0.0000
   2557 C         189.0441  262.2643   61.4008 C.3     365      M_A    0.0000
   2558 O         188.1944  262.7982   62.4160 O.3     365      M_A    0.0000
   2559 H         190.6248  263.4392   62.3254 H       365      M_A    0.0000
   2560 H         191.0721  262.6484   60.8084 H       365      M_A    0.0000
   2561 H         188.8034  262.6869   60.4148 H       365      M_A    0.0000
   2562 H         188.8392  261.1885   61.3332 H       365      M_A    0.0000
   2563 C         186.8751  262.3059   62.2979 C.3     366      M_A    0.0000
   2564 C         185.9365  262.9257   63.3290 C.3     366      M_A    0.0000
   2565 O         184.8385  263.5698   62.6830 O.3     366      M_A    0.0000
   2566 H         186.5166  262.4855   61.2787 H       366      M_A    0.0000
   2567 H         186.9050  261.2213   62.4524 H       366      M_A    0.0000
   2568 H         185.5901  262.1585   64.0364 H       366      M_A    0.0000
   2569 H         186.4566  263.6842   63.9274 H       366      M_A    0.0000
   2570 C         183.8817  264.0235   63.6187 C.3     367      M_A    0.0000
   2571 C         182.9918  265.1214   63.0434 C.3     367      M_A    0.0000
   2572 O         181.6189  264.8534   63.3285 O.3     367      M_A    0.0000
   2573 H         183.2859  263.1712   63.9624 H       367      M_A    0.0000
   2574 H         184.4209  264.4221   64.4857 H       367      M_A    0.0000
   2575 H         183.2976  266.1021   63.4354 H       367      M_A    0.0000
   2576 H         183.0955  265.1796   61.9527 H       367      M_A    0.0000
   2577 C         180.7777  265.2951   62.2826 C.3     368      M_A    0.0000
   2578 C         179.4958  265.9347   62.8079 C.3     368      M_A    0.0000
   2579 O         179.2239  267.1529   62.1151 O.3     368      M_A    0.0000
   2580 H         181.3344  265.9909   61.6459 H       368      M_A    0.0000
   2581 H         180.5146  264.4244   61.6711 H       368      M_A    0.0000
   2582 H         178.6567  265.2295   62.7213 H       368      M_A    0.0000
   2583 H         179.5862  266.1765   63.8743 H       368      M_A    0.0000
   2584 C         178.3938  268.0065   62.8760 C.3     369      M_A    0.0000
   2585 C         177.2437  268.5750   62.0499 C.3     369      M_A    0.0000
   2586 O         176.0149  268.4785   62.7700 O.3     369      M_A    0.0000
   2587 H         178.0211  267.4585   63.7479 H       369      M_A    0.0000
   2588 H         179.0096  268.8353   63.2438 H       369      M_A    0.0000
   2589 H         177.4593  269.6146   61.7643 H       369      M_A    0.0000
   2590 H         177.1201  268.0173   61.1132 H       369      M_A    0.0000
   2591 C         174.9172  268.2997   61.8983 C.3     370      M_A    0.0000
   2592 C         173.6543  268.9799   62.4181 C.3     370      M_A    0.0000
   2593 O         173.3712  270.1561   61.6604 O.3     370      M_A    0.0000
   2594 H         175.1861  268.6721   60.9040 H       370      M_A    0.0000
   2595 H         174.7294  267.2235   61.8093 H       370      M_A    0.0000
   2596 H         172.8087  268.2775   62.3970 H       370      M_A    0.0000
   2597 H         173.7753  269.2849   63.4652 H       370      M_A    0.0000
   2598 C         172.7486  271.1455   62.4544 C.3     371      M_A    0.0000
   2599 C         171.2709  271.3106   62.1119 C.3     371      M_A    0.0000
   2600 O         170.4868  271.3877   63.3022 O.3     371      M_A    0.0000
   2601 H         172.8835  270.8925   63.5114 H       371      M_A    0.0000
   2602 H         173.2630  272.0962   62.2728 H       371      M_A    0.0000
   2603 H         171.1249  272.1975   61.4787 H       371      M_A    0.0000
   2604 H         170.9043  270.4543   61.5319 H       371      M_A    0.0000
   2605 C         169.2366  272.0001   63.0593 C.3     372      M_A    0.0000
   2606 C         168.2882  271.8595   64.2463 C.3     372      M_A    0.0000
   2607 O         167.5176  273.0493   64.4148 O.3     372      M_A    0.0000
   2608 H         169.3979  273.0529   62.8047 H       372      M_A    0.0000
   2609 H         168.7868  271.5131   62.1865 H       372      M_A    0.0000
   2610 H         167.6419  270.9799   64.1136 H       372      M_A    0.0000
   2611 H         168.8457  271.6946   65.1768 H       372      M_A    0.0000
   2612 C         166.4003  272.8278   65.2510 C.3     373      M_A    0.0000
   2613 C         165.0875  273.1900   64.5629 C.3     373      M_A    0.0000
   2614 O         164.0006  272.4745   65.1500 O.3     373      M_A    0.0000
   2615 H         166.4001  271.7825   65.5777 H       373      M_A    0.0000
   2616 H         166.5175  273.4538   66.1430 H       373      M_A    0.0000
   2617 H         164.9222  274.2760   64.6082 H       373      M_A    0.0000
   2618 H         165.1168  272.9270   63.4981 H       373      M_A    0.0000
   2619 C         163.8286  272.8195   66.5095 C.3     374      M_A    0.0000
   2620 C         162.4234  273.3405   66.7962 C.3     374      M_A    0.0000
   2621 O         161.7033  272.4157   67.6111 O.3     374      M_A    0.0000
   2622 H         164.0619  271.9488   67.1315 H       374      M_A    0.0000
   2623 H         164.5541  273.6043   66.7524 H       374      M_A    0.0000
   2624 H         162.4752  274.3326   67.2675 H       374      M_A    0.0000
   2625 H         161.8556  273.4704   65.8665 H       374      M_A    0.0000
   2626 C         160.8425  273.0817   68.5125 C.3     375      M_A    0.0000
   2627 C         160.0439  274.1893   67.8315 C.3     375      M_A    0.0000
   2628 O         158.6690  273.8210   67.7235 O.3     375      M_A    0.0000
   2629 H         160.1792  272.3474   68.9818 H       375      M_A    0.0000
   2630 H         161.4595  273.5241   69.3030 H       375      M_A    0.0000
   2631 H         160.1627  275.1349   68.3799 H       375      M_A    0.0000
   2632 H         160.4155  274.3735   66.8157 H       375      M_A    0.0000
   2633 C         157.9728  274.0616   68.9295 C.3     376      M_A    0.0000
   2634 C         156.6578  274.7994   68.6959 C.3     376      M_A    0.0000
   2635 O         155.5804  274.1173   69.3376 O.3     376      M_A    0.0000
   2636 H         157.8055  273.1082   69.4419 H       376      M_A    0.0000
   2637 H         158.6143  274.6752   69.5722 H       376      M_A    0.0000
   2638 H         156.7383  275.8385   69.0462 H       376      M_A    0.0000
   2639 H         156.4221  274.8524   67.6257 H       376      M_A    0.0000
   2640 C         154.4714  274.9709   69.5337 C.3     377      M_A    0.0000
   2641 C         153.1448  274.2314   69.3877 C.3     377      M_A    0.0000
   2642 O         152.2084  274.6859   70.3647 O.3     377      M_A    0.0000
   2643 H         154.5541  275.4438   70.5180 H       377      M_A    0.0000
   2644 H         154.5197  275.7647   68.7795 H       377      M_A    0.0000
   2645 H         152.7513  274.3554   68.3686 H       377      M_A    0.0000
   2646 H         153.2781  273.1526   69.5374 H       377      M_A    0.0000
   2647 C         150.9535  274.0543   70.2114 C.3     378      M_A    0.0000
   2648 C         149.9604  274.4817   71.2881 C.3     378      M_A    0.0000
   2649 O         148.6790  274.7385   70.7135 O.3     378      M_A    0.0000
   2650 H         150.5662  274.2674   69.2094 H       378      M_A    0.0000
   2651 H         151.1100  272.9719   70.2830 H       378      M_A    0.0000
   2652 H         149.8997  273.7154   72.0742 H       378      M_A    0.0000
   2653 H         150.2897  275.4044   71.7820 H       378      M_A    0.0000
   2654 C         147.7512  273.7256   71.0451 C.3     379      M_A    0.0000
   2655 C         146.3349  274.0757   70.5981 C.3     379      M_A    0.0000
   2656 O         145.8541  273.1136   69.6595 O.3     379      M_A    0.0000
   2657 H         148.0823  272.7794   70.6042 H       379      M_A    0.0000
   2658 H         147.7594  273.6046   72.1344 H       379      M_A    0.0000
   2659 H         145.6694  274.1508   71.4701 H       379      M_A    0.0000
   2660 H         146.3096  275.0560   70.1059 H       379      M_A    0.0000
   2661 C         144.4956  272.8002   69.8900 C.3     380      M_A    0.0000
   2662 C         143.7452  272.5108   68.5933 C.3     380      M_A    0.0000
   2663 O         143.2037  271.1901   68.6125 O.3     380      M_A    0.0000
   2664 H         144.4367  271.9507   70.5788 H       380      M_A    0.0000
   2665 H         144.0304  273.6607   70.3843 H       380      M_A    0.0000
   2666 H         142.9592  273.2630   68.4337 H       380      M_A    0.0000
   2667 H         144.4163  272.5781   67.7279 H       380      M_A    0.0000
   2668 C         142.3673  270.9578   67.4975 C.3     381      M_A    0.0000
   2669 C         141.3306  269.8727   67.7735 C.3     381      M_A    0.0000
   2670 O         140.0141  270.3616   67.5172 O.3     381      M_A    0.0000
   2671 H         141.8873  271.8988   67.2086 H       381      M_A    0.0000
   2672 H         143.0007  270.6386   66.6618 H       381      M_A    0.0000
   2673 H         141.5488  268.9778   67.1731 H       381      M_A    0.0000
   2674 H         141.3646  269.5553   68.8232 H       381      M_A    0.0000
   2675 C         139.0287  269.4712   68.0000 C.3     382      M_A    0.0000
   2676 C         137.7364  270.1921   68.3722 C.3     382      M_A    0.0000
   2677 O         136.6202  269.3095   68.2581 O.3     382      M_A    0.0000
   2678 H         138.8467  268.6971   67.2469 H       382      M_A    0.0000
   2679 H         139.4290  268.9774   68.8928 H       382      M_A    0.0000
   2680 H         137.8136  270.6103   69.3861 H       382      M_A    0.0000
   2681 H         137.5535  271.0413   67.7018 H       382      M_A    0.0000
   2682 C         135.6095  269.6304   69.1922 C.3     383      M_A    0.0000
   2683 C         134.2326  269.7182   68.5406 C.3     383      M_A    0.0000
   2684 O         133.2177  269.3125   69.4589 O.3     383      M_A    0.0000
   2685 H         135.6190  268.8887   69.9979 H       383      M_A    0.0000
   2686 H         135.8554  270.6029   69.6339 H       383      M_A    0.0000
   2687 H         134.0523  270.7375   68.1702 H       383      M_A    0.0000
   2688 H         134.1687  269.0572   67.6673 H       383      M_A    0.0000
   2689 C         132.1224  270.2053   69.4469 C.3     384      M_A    0.0000
   2690 C         130.8361  269.5426   69.9310 C.3     384      M_A    0.0000
   2691 O         130.0279  270.4793   70.6434 O.3     384      M_A    0.0000
   2692 H         132.3690  271.0816   70.0559 H       384      M_A    0.0000
   2693 H         131.9783  270.5481   68.4159 H       384      M_A    0.0000
   2694 H         130.2900  269.1082   69.0814 H       384      M_A    0.0000
   2695 H         131.0553  268.7120   70.6136 H       384      M_A    0.0000
   2696 C         128.7421  269.9566   70.9082 C.3     385      M_A    0.0000
   2697 C         127.7812  271.0266   71.4180 C.3     385      M_A    0.0000
   2698 O         126.4901  270.8600   70.8323 O.3     385      M_A    0.0000
   2699 H         128.3566  269.4790   70.0011 H       385      M_A    0.0000
   2700 H         128.8454  269.1791   71.6738 H       385      M_A    0.0000
   2701 H         127.7289  270.9978   72.5159 H       385      M_A    0.0000
   2702 H         128.1351  272.0307   71.1527 H       385      M_A    0.0000
   2703 C         125.6275  271.9273   71.1694 C.3     386      M_A    0.0000
   2704 C         126.2295  273.2848   70.8186 C.3     386      M_A    0.0000
   2705 O         125.2226  274.2967   70.8291 O.3     386      M_A    0.0000
   2706 H         124.6647  271.7805   70.6685 H       386      M_A    0.0000
   2707 H         125.4484  271.8875   72.2500 H       386      M_A    0.0000
   2708 H         127.0477  273.5276   71.5118 H       386      M_A    0.0000
   2709 H         126.6707  273.2708   69.8141 H       386      M_A    0.0000
   2710 C         125.1673  274.9583   72.0766 C.3     387      M_A    0.0000
   2711 C         126.4137  275.7992   72.3362 C.3     387      M_A    0.0000
   2712 O         126.1300  277.1856   72.1487 O.3     387      M_A    0.0000
   2713 H         124.2610  275.5721   72.1156 H       387      M_A    0.0000
   2714 H         125.0849  274.1954   72.8592 H       387      M_A    0.0000
   2715 H         126.7999  275.6032   73.3469 H       387      M_A    0.0000
   2716 H         127.2195  275.5318   71.6413 H       387      M_A    0.0000
   2717 C         125.9399  277.4944   70.7829 C.3     388      M_A    0.0000
   2718 C         125.1306  278.7736   70.5907 C.3     388      M_A    0.0000
   2719 O         125.9742  279.9203   70.6974 O.3     388      M_A    0.0000
   2720 H         126.9171  277.5676   70.2937 H       388      M_A    0.0000
   2721 H         125.3996  276.6603   70.3208 H       388      M_A    0.0000
   2722 H         124.6079  278.7503   69.6237 H       388      M_A    0.0000
   2723 H         124.3529  278.8653   71.3592 H       388      M_A    0.0000
   2724 C         125.2192  281.1122   70.7769 C.3     389      M_A    0.0000
   2725 C         124.4945  281.2447   72.1130 C.3     389      M_A    0.0000
   2726 O         124.3827  282.6176   72.4878 O.3     389      M_A    0.0000
   2727 H         125.8808  281.9668   70.5995 H       389      M_A    0.0000
   2728 H         124.4766  281.0951   69.9709 H       389      M_A    0.0000
   2729 H         123.5074  280.7634   72.0588 H       389      M_A    0.0000
   2730 H         125.0446  280.7302   72.9108 H       389      M_A    0.0000
   2731 C         123.4217  282.7988   73.5078 C.3     390      M_A    0.0000
   2732 C         122.2543  283.6677   73.0490 C.3     390      M_A    0.0000
   2733 O         121.0223  282.9576   73.1745 O.3     390      M_A    0.0000
   2734 H         123.0740  281.8180   73.8495 H       390      M_A    0.0000
   2735 H         123.9168  283.2883   74.3542 H       390      M_A    0.0000
   2736 H         122.2340  284.6077   73.6189 H       390      M_A    0.0000
   2737 H         122.3653  283.9492   71.9943 H       390      M_A    0.0000
   2738 C         121.1318  281.6397   72.6766 C.3     391      M_A    0.0000
   2739 C         121.6426  280.6667   73.7350 C.3     391      M_A    0.0000
   2740 O         120.7693  279.5428   73.8448 O.3     391      M_A    0.0000
   2741 H         120.1589  281.3235   72.2855 H       391      M_A    0.0000
   2742 H         121.8374  281.6538   71.8379 H       391      M_A    0.0000
   2743 H         122.6697  280.3534   73.4984 H       391      M_A    0.0000
   2744 H         121.6862  281.1463   74.7209 H       391      M_A    0.0000
   2745 C         120.1564  279.2412   72.6077 C.3     392      M_A    0.0000
   2746 C         121.1773  278.8649   71.5379 C.3     392      M_A    0.0000
   2747 O         121.4908  277.4742   71.6125 O.3     392      M_A    0.0000
   2748 H         119.4261  278.4388   72.7569 H       392      M_A    0.0000
   2749 H         119.6084  280.1311   72.2774 H       392      M_A    0.0000
   2750 H         120.8006  279.1371   70.5414 H       392      M_A    0.0000
   2751 H         122.1133  279.4205   71.6757 H       392      M_A    0.0000
   2752 C         122.7933  277.2641   72.1187 C.3     393      M_A    0.0000
   2753 C         122.8324  276.1463   73.1566 C.3     393      M_A    0.0000
   2754 O         123.7788  276.4482   74.1818 O.3     393      M_A    0.0000
   2755 H         123.4710  277.0531   71.2847 H       393      M_A    0.0000
   2756 H         123.1265  278.1964   72.5889 H       393      M_A    0.0000
   2757 H         121.8289  275.9813   73.5746 H       393      M_A    0.0000
   2758 H         123.1356  275.1962   72.6991 H       393      M_A    0.0000
   2759 C         123.9665  275.3506   75.0519 C.3     394      M_A    0.0000
   2760 C         125.4382  275.1309   75.3895 C.3     394      M_A    0.0000
   2761 O         125.5926  273.9925   76.2370 O.3     394      M_A    0.0000
   2762 H         123.3721  275.5074   75.9583 H       394      M_A    0.0000
   2763 H         123.5797  274.4549   74.5526 H       394      M_A    0.0000
   2764 H         126.0276  275.0258   74.4673 H       394      M_A    0.0000
   2765 H         125.8521  275.9959   75.9227 H       394      M_A    0.0000
   2766 C         124.7743  272.9199   75.8165 C.3     395      M_A    0.0000
   2767 C         124.5457  272.9293   74.3080 C.3     395      M_A    0.0000
   2768 O         124.4194  271.5964   73.8126 O.3     395      M_A    0.0000
   2769 H         125.2261  271.9768   76.1420 H       395      M_A    0.0000
   2770 H         123.8067  273.0158   76.3224 H       395      M_A    0.0000
   2771 H         123.6601  273.5328   74.0621 H       395      M_A    0.0000
   2772 H         125.3907  273.3951   73.7857 H       395      M_A    0.0000
   2773 C         123.1128  271.0943   74.0064 C.3     396      M_A    0.0000
   2774 C         122.4084  270.8015   72.6849 C.3     396      M_A    0.0000
   2775 O         122.9060  269.5936   72.1094 O.3     396      M_A    0.0000
   2776 H         123.1637  270.1984   74.6342 H       396      M_A    0.0000
   2777 H         122.5389  271.8506   74.5541 H       396      M_A    0.0000
   2778 H         121.3205  270.7534   72.8373 H       396      M_A    0.0000
   2779 H         122.5826  271.6068   71.9603 H       396      M_A    0.0000
   2780 C         122.4039  269.3979   70.8031 C.3     397      M_A    0.0000
   2781 C         123.5214  269.2395   69.7764 C.3     397      M_A    0.0000
   2782 O         123.9051  267.8693   69.6617 O.3     397      M_A    0.0000
   2783 H         121.7399  268.5270   70.8022 H       397      M_A    0.0000
   2784 H         121.8014  270.2745   70.5389 H       397      M_A    0.0000
   2785 H         123.2060  269.6490   68.8059 H       397      M_A    0.0000
   2786 H         124.4122  269.8062   70.0750 H       397      M_A    0.0000
   2787 C         125.0572  267.7204   68.8570 C.3     398      M_A    0.0000
   2788 C         125.8151  266.4341   69.1718 C.3     398      M_A    0.0000
   2789 O         125.3612  265.3687   68.3370 O.3     398      M_A    0.0000
   2790 H         124.7639  267.7584   67.8025 H       398      M_A    0.0000
   2791 H         125.7152  268.5757   69.0491 H       398      M_A    0.0000
   2792 H         126.8973  266.5948   69.0622 H       398      M_A    0.0000
   2793 H         125.6530  266.1277   70.2128 H       398      M_A    0.0000
   2794 C         126.3211  264.3353   68.2496 C.3     399      M_A    0.0000
   2795 C         125.6840  262.9514   68.3339 C.3     399      M_A    0.0000
   2796 O         125.4518  262.4269   67.0267 O.3     399      M_A    0.0000
   2797 H         126.8893  264.4530   67.3208 H       399      M_A    0.0000
   2798 H         127.0215  264.4546   69.0842 H       399      M_A    0.0000
   2799 H         126.3176  262.2775   68.9284 H       399      M_A    0.0000
   2800 H         124.7152  262.9958   68.8470 H       399      M_A    0.0000
   2801 C         124.3901  261.4943   67.0247 C.3     400      M_A    0.0000
   2802 C         123.6623  261.4558   65.6841 C.3     400      M_A    0.0000
   2803 O         124.0740  260.3200   64.9236 O.3     400      M_A    0.0000
   2804 H         124.7816  260.5066   67.2904 H       400      M_A    0.0000
   2805 H         123.6800  261.7904   67.8053 H       400      M_A    0.0000
   2806 H         122.5743  261.4578   65.8429 H       400      M_A    0.0000
   2807 H         123.8884  262.3493   65.0889 H       400      M_A    0.0000
   2808 C         123.2535  260.1327   63.7885 C.3     401      M_A    0.0000
   2809 C         123.6492  261.0511   62.6361 C.3     401      M_A    0.0000
   2810 O         122.9766  260.6676   61.4368 O.3     401      M_A    0.0000
   2811 H         123.2947  259.0805   63.4875 H       401      M_A    0.0000
   2812 H         122.2202  260.3539   64.0794 H       401      M_A    0.0000
   2813 H         123.4378  262.0984   62.8957 H       401      M_A    0.0000
   2814 H         124.7274  260.9937   62.4408 H       401      M_A    0.0000
   2815 C         121.6057  260.4168   61.6702 C.3     402      M_A    0.0000
   2816 C         120.7163  261.5230   61.1103 C.3     402      M_A    0.0000
   2817 O         119.4841  260.9818   60.6344 O.3     402      M_A    0.0000
   2818 H         121.3425  259.4436   61.2426 H       402      M_A    0.0000
   2819 H         121.4542  260.3546   62.7539 H       402      M_A    0.0000
   2820 H         120.5453  262.2955   61.8738 H       402      M_A    0.0000
   2821 H         121.2017  262.0272   60.2654 H       402      M_A    0.0000
   2822 C         118.3823  261.4873   61.3606 C.3     403      M_A    0.0000
   2823 C         117.0513  260.9888   60.8056 C.3     403      M_A    0.0000
   2824 O         116.4809  260.0113   61.6756 O.3     403      M_A    0.0000
   2825 H         118.4962  261.2181   62.4161 H       403      M_A    0.0000
   2826 H         118.4074  262.5810   61.2930 H       403      M_A    0.0000
   2827 H         116.3652  261.8336   60.6488 H       403      M_A    0.0000
   2828 H         117.1873  260.5163   59.8247 H       403      M_A    0.0000
   2829 C         115.6793  259.0905   60.9639 C.3     404      M_A    0.0000
   2830 C         115.4597  257.7976   61.7440 C.3     404      M_A    0.0000
   2831 O         114.1539  257.2778   61.4940 O.3     404      M_A    0.0000
   2832 H         114.7259  259.5668   60.7118 H       404      M_A    0.0000
   2833 H         116.1908  258.8547   60.0236 H       404      M_A    0.0000
   2834 H         116.2378  257.0638   61.4890 H       404      M_A    0.0000
   2835 H         115.5428  257.9719   62.8240 H       404      M_A    0.0000
   2836 C         114.0357  255.9413   61.9373 C.3     405      M_A    0.0000
   2837 C         113.5958  255.0020   60.8182 C.3     405      M_A    0.0000
   2838 O         114.0890  253.6824   61.0496 O.3     405      M_A    0.0000
   2839 H         114.9903  255.6221   62.3690 H       405      M_A    0.0000
   2840 H         113.2858  255.9164   62.7363 H       405      M_A    0.0000
   2841 H         112.5003  255.0089   60.7255 H       405      M_A    0.0000
   2842 H         113.9891  255.3344   59.8494 H       405      M_A    0.0000
   2843 C         113.8806  253.2797   62.3880 C.3     406      M_A    0.0000
   2844 C         113.6223  251.7803   62.5028 C.3     406      M_A    0.0000
   2845 O         114.7746  251.1118   63.0159 O.3     406      M_A    0.0000
   2846 H         114.7451  253.5792   62.9900 H       406      M_A    0.0000
   2847 H         113.0072  253.8202   62.7704 H       406      M_A    0.0000
   2848 H         112.7393  251.5943   63.1309 H       406      M_A    0.0000
   2849 H         113.3995  251.3441   61.5211 H       406      M_A    0.0000
   2850 C         114.6590  249.7094   62.8872 C.3     407      M_A    0.0000
   2851 C         115.6367  249.1444   61.8610 C.3     407      M_A    0.0000
   2852 O         116.1055  247.8598   62.2706 O.3     407      M_A    0.0000
   2853 H         114.8058  249.2471   63.8692 H       407      M_A    0.0000
   2854 H         113.6363  249.4837   62.5642 H       407      M_A    0.0000
   2855 H         115.1628  249.0998   60.8699 H       407      M_A    0.0000
   2856 H         116.5134  249.7954   61.7543 H       407      M_A    0.0000
   2857 C         116.9717  247.9558   63.3830 C.3     408      M_A    0.0000
   2858 C         117.1460  246.6161   64.0923 C.3     408      M_A    0.0000
   2859 O         118.0246  245.7686   63.3522 O.3     408      M_A    0.0000
   2860 H         117.9358  248.3561   63.0516 H       408      M_A    0.0000
   2861 H         116.5381  248.6757   64.0866 H       408      M_A    0.0000
   2862 H         117.5119  246.7741   65.1170 H       408      M_A    0.0000
   2863 H         116.1860  246.0932   64.1850 H       408      M_A    0.0000
   2864 C         117.7262  245.7941   61.9712 C.3     409      M_A    0.0000
   2865 C         117.6832  244.3936   61.3671 C.3     409      M_A    0.0000
   2866 O         116.3327  243.9710   61.1788 O.3     409      M_A    0.0000
   2867 H         116.7769  246.3190   61.8203 H       409      M_A    0.0000
   2868 H         118.5088  246.3734   61.4679 H       409      M_A    0.0000
   2869 H         118.2449  244.3704   60.4222 H       409      M_A    0.0000
   2870 H         118.1659  243.6650   62.0304 H       409      M_A    0.0000
   2871 C         116.2383  242.5636   61.0940 C.3     410      M_A    0.0000
   2872 C         116.4542  241.8911   62.4465 C.3     410      M_A    0.0000
   2873 O         116.0933  240.5114   62.3827 O.3     410      M_A    0.0000
   2874 H         115.2645  242.2957   60.6703 H       410      M_A    0.0000
   2875 H         117.0098  242.2154   60.3977 H       410      M_A    0.0000
   2876 H         117.4973  242.0170   62.7707 H       410      M_A    0.0000
   2877 H         115.8325  242.3578   63.2207 H       410      M_A    0.0000
   2878 C         116.3335  239.9728   61.0985 C.3     411      M_A    0.0000
   2879 C         117.3288  238.8169   61.1377 C.3     411      M_A    0.0000
   2880 O         116.7504  237.6391   60.5754 O.3     411      M_A    0.0000
   2881 H         115.3808  239.6593   60.6585 H       411      M_A    0.0000
   2882 H         116.7423  240.7715   60.4692 H       411      M_A    0.0000
   2883 H         118.2552  239.0960   60.6154 H       411      M_A    0.0000
   2884 H         117.6161  238.5811   62.1700 H       411      M_A    0.0000
   2885 C         116.6366  237.7389   59.1704 C.3     412      M_A    0.0000
   2886 C         117.5027  236.7100   58.4497 C.3     412      M_A    0.0000
   2887 O         116.8480  235.4420   58.4136 O.3     412      M_A    0.0000
   2888 H         115.5832  237.6356   58.8889 H       412      M_A    0.0000
   2889 H         116.9612  238.7437   58.8766 H       412      M_A    0.0000
   2890 H         117.7477  237.0625   57.4374 H       412      M_A    0.0000
   2891 H         118.4599  236.5708   58.9676 H       412      M_A    0.0000
   2892 C         117.7750  234.3851   58.2710 C.3     413      M_A    0.0000
   2893 C         117.3986  233.1730   59.1181 C.3     413      M_A    0.0000
   2894 O         116.6359  232.2428   58.3495 O.3     413      M_A    0.0000
   2895 H         117.8527  234.1183   57.2116 H       413      M_A    0.0000
   2896 H         118.7563  234.7518   58.5932 H       413      M_A    0.0000
   2897 H         118.3027  232.7036   59.5318 H       413      M_A    0.0000
   2898 H         116.7849  233.4702   59.9776 H       413      M_A    0.0000
   2899 C         116.1655  232.8250   57.1509 C.3     414      M_A    0.0000
   2900 C         115.0191  232.0272   56.5364 C.3     414      M_A    0.0000
   2901 O         113.7628  232.5045   57.0178 O.3     414      M_A    0.0000
   2902 H         115.8653  233.8593   57.3498 H       414      M_A    0.0000
   2903 H         116.9992  232.8527   56.4399 H       414      M_A    0.0000
   2904 H         115.0704  232.0729   55.4391 H       414      M_A    0.0000
   2905 H         115.0917  230.9657   56.8043 H       414      M_A    0.0000
   2906 C         112.7004  231.6674   56.6088 C.3     415      M_A    0.0000
   2907 C         112.7323  230.3139   57.3126 C.3     415      M_A    0.0000
   2908 O         111.4136  229.7803   57.4313 O.3     415      M_A    0.0000
   2909 H         111.7505  232.1829   56.7864 H       415      M_A    0.0000
   2910 H         112.7939  231.5076   55.5286 H       415      M_A    0.0000
   2911 H         113.3967  229.6222   56.7749 H       415      M_A    0.0000
   2912 H         113.1410  230.4082   58.3264 H       415      M_A    0.0000
   2913 C         110.5512  230.3083   56.4442 C.3     416      M_A    0.0000
   2914 C         110.3541  229.3437   55.2785 C.3     416      M_A    0.0000
   2915 O         108.9645  229.1736   54.9991 O.3     416      M_A    0.0000
   2916 H         109.5938  230.5685   56.9082 H       416      M_A    0.0000
   2917 H         110.9988  231.2346   56.0661 H       416      M_A    0.0000
   2918 H         110.8990  229.7019   54.3932 H       416      M_A    0.0000
   2919 H         110.7653  228.3541   55.5139 H       416      M_A    0.0000
   2920 C         108.6903  227.8765   54.5101 C.3     417      M_A    0.0000
   2921 C         107.4554  227.8499   53.6142 C.3     417      M_A    0.0000
   2922 O         107.5460  226.7841   52.6687 O.3     417      M_A    0.0000
   2923 H         109.5717  227.5009   53.9796 H       417      M_A    0.0000
   2924 H         108.5176  227.2212   55.3714 H       417      M_A    0.0000
   2925 H         106.5451  227.7662   54.2251 H       417      M_A    0.0000
   2926 H         107.3613  228.7846   53.0475 H       417      M_A    0.0000
   2927 C         108.2548  225.6821   53.1979 C.3     418      M_A    0.0000
   2928 C         107.3551  224.4675   53.4068 C.3     418      M_A    0.0000
   2929 O         107.5810  223.4958   52.3857 O.3     418      M_A    0.0000
   2930 H         109.0926  225.4439   52.5339 H       418      M_A    0.0000
   2931 H         108.6736  225.9836   54.1648 H       418      M_A    0.0000
   2932 H         107.5187  224.0417   54.4072 H       418      M_A    0.0000
   2933 H         106.2962  224.7511   53.3620 H       418      M_A    0.0000
   2934 C         106.5661  222.5126   52.3738 C.3     419      M_A    0.0000
   2935 C         106.8926  221.3620   51.4264 C.3     419      M_A    0.0000
   2936 O         106.9342  220.1247   52.1373 O.3     419      M_A    0.0000
   2937 H         106.4072  222.1507   53.3952 H       419      M_A    0.0000
   2938 H         105.6371  222.9912   52.0434 H       419      M_A    0.0000
   2939 H         106.1618  221.3271   50.6056 H       419      M_A    0.0000
   2940 H         107.8746  221.5052   50.9586 H       419      M_A    0.0000
   2941 C         106.7579  219.0234   51.2696 C.3     420      M_A    0.0000
   2942 C         107.8483  217.9713   51.4485 C.3     420      M_A    0.0000
   2943 O         107.2719  216.6747   51.6054 O.3     420      M_A    0.0000
   2944 H         105.7637  218.5943   51.4342 H       420      M_A    0.0000
   2945 H         106.7912  219.3971   50.2398 H       420      M_A    0.0000
   2946 H         108.5453  217.9988   50.5986 H       420      M_A    0.0000
   2947 H         108.4473  218.1751   52.3449 H       420      M_A    0.0000
   2948 C         108.1290  215.6646   51.1135 C.3     421      M_A    0.0000
   2949 C         107.5216  214.2730   51.2634 C.3     421      M_A    0.0000
   2950 O         106.9150  213.8572   50.0398 O.3     421      M_A    0.0000
   2951 H         108.3712  215.8797   50.0672 H       421      M_A    0.0000
   2952 H         109.0630  215.7073   51.6854 H       421      M_A    0.0000
   2953 H         108.2888  213.5575   51.5927 H       421      M_A    0.0000
   2954 H         106.7421  214.2659   52.0355 H       421      M_A    0.0000
   2955 C         106.0395  212.7665   50.2411 C.3     422      M_A    0.0000
   2956 C         106.5291  211.5009   49.5435 C.3     422      M_A    0.0000
   2957 O         106.5424  210.4010   50.4535 O.3     422      M_A    0.0000
   2958 H         105.9149  212.6020   51.3167 H       422      M_A    0.0000
   2959 H         105.0602  213.0405   49.8322 H       422      M_A    0.0000
   2960 H         105.9037  211.2856   48.6651 H       422      M_A    0.0000
   2961 H         107.5523  211.6298   49.1691 H       422      M_A    0.0000
   2962 C         106.2337  209.1862   49.8010 C.3     423      M_A    0.0000
   2963 C         107.2698  208.1026   50.0848 C.3     423      M_A    0.0000
   2964 O         106.6316  206.8998   50.5136 O.3     423      M_A    0.0000
   2965 H         105.2314  208.8633   50.1024 H       423      M_A    0.0000
   2966 H         106.2093  209.3796   48.7225 H       423      M_A    0.0000
   2967 H         107.8918  207.9299   49.1948 H       423      M_A    0.0000
   2968 H         107.9546  208.4138   50.8835 H       423      M_A    0.0000
   2969 C         107.5067  205.7932   50.4337 C.3     424      M_A    0.0000
   2970 C         108.8406  206.0652   51.1227 C.3     424      M_A    0.0000
   2971 O         109.5663  204.8496   51.3059 O.3     424      M_A    0.0000
   2972 H         107.0122  204.9149   50.8623 H       424      M_A    0.0000
   2973 H         107.6911  205.5852   49.3735 H       424      M_A    0.0000
   2974 H         109.4243  206.7961   50.5446 H       424      M_A    0.0000
   2975 H         108.6870  206.5087   52.1144 H       424      M_A    0.0000
   2976 C         110.0120  204.3224   50.0729 C.3     425      M_A    0.0000
   2977 C         111.0829  203.2517   50.2597 C.3     425      M_A    0.0000
   2978 O         110.7451  202.0730   49.5286 O.3     425      M_A    0.0000
   2979 H         109.1518  203.9291   49.5206 H       425      M_A    0.0000
   2980 H         110.4335  205.1469   49.4865 H       425      M_A    0.0000
   2981 H         112.0658  203.6414   49.9581 H       425      M_A    0.0000
   2982 H         111.1746  202.9683   51.3157 H       425      M_A    0.0000
   2983 C         109.5190  201.5251   49.9685 C.3     426      M_A    0.0000
   2984 C         109.1584  200.2475   49.2163 C.3     426      M_A    0.0000
   2985 O         109.6279  199.1004   49.9245 O.3     426      M_A    0.0000
   2986 H         109.5742  201.3464   51.0476 H       426      M_A    0.0000
   2987 H         108.7352  202.2715   49.7958 H       426      M_A    0.0000
   2988 H         108.0725  200.1983   49.0506 H       426      M_A    0.0000
   2989 H         109.6227  200.2328   48.2223 H       426      M_A    0.0000
   2990 C         108.8690  197.9510   49.6085 C.3     427      M_A    0.0000
   2991 C         109.5710  197.0629   48.5854 C.3     427      M_A    0.0000
   2992 O         109.7571  195.7477   49.1085 O.3     427      M_A    0.0000
   2993 H         108.6552  197.3994   50.5302 H       427      M_A    0.0000
   2994 H         107.9115  198.2836   49.1916 H       427      M_A    0.0000
   2995 H         109.0004  197.0424   47.6457 H       427      M_A    0.0000
   2996 H         110.5625  197.4603   48.3353 H       427      M_A    0.0000
   2997 C         109.7341  194.7754   48.0834 C.3     428      M_A    0.0000
   2998 C         111.0279  193.9683   48.0284 C.3     428      M_A    0.0000
   2999 O         110.7444  192.5695   48.0016 O.3     428      M_A    0.0000
   3000 H         108.8669  194.1226   48.2294 H       428      M_A    0.0000
   3001 H         109.6000  195.2959   47.1282 H       428      M_A    0.0000
   3002 H         111.6276  194.2715   47.1581 H       428      M_A    0.0000
   3003 H         111.6486  194.1609   48.9124 H       428      M_A    0.0000
   3004 C         111.8407  191.8290   47.5050 C.3     429      M_A    0.0000
   3005 C         111.8716  190.4076   48.0588 C.3     429      M_A    0.0000
   3006 O         111.2785  189.4968   47.1334 O.3     429      M_A    0.0000
   3007 H         111.8033  191.8260   46.4104 H       429      M_A    0.0000
   3008 H         112.7597  192.3460   47.8038 H       429      M_A    0.0000
   3009 H         112.9041  190.1167   48.3002 H       429      M_A    0.0000
   3010 H         111.3052  190.3390   48.9960 H       429      M_A    0.0000
   3011 C         111.1194  188.2126   47.7013 C.3     430      M_A    0.0000
   3012 C         110.0422  188.1922   48.7818 C.3     430      M_A    0.0000
   3013 O         109.3202  186.9612   48.7455 O.3     430      M_A    0.0000
   3014 H         110.8942  187.4951   46.9051 H       430      M_A    0.0000
   3015 H         112.0764  187.9213   48.1492 H       430      M_A    0.0000
   3016 H         110.4929  188.3623   49.7702 H       430      M_A    0.0000
   3017 H         109.3182  189.0023   48.6298 H       430      M_A    0.0000
   3018 C         110.1494  185.8866   48.3525 C.3     431      M_A    0.0000
   3019 C         110.3907  184.9011   49.4921 C.3     431      M_A    0.0000
   3020 O         109.3700  183.9034   49.5156 O.3     431      M_A    0.0000
   3021 H         109.7013  185.3876   47.4866 H       431      M_A    0.0000
   3022 H         111.1119  186.3027   48.0338 H       431      M_A    0.0000
   3023 H         111.3890  184.4499   49.3986 H       431      M_A    0.0000
   3024 H         110.3732  185.4118   50.4630 H       431      M_A    0.0000
   3025 C         109.3472  183.2157   50.7499 C.3     432      M_A    0.0000
   3026 C         108.7999  184.0826   51.8800 C.3     432      M_A    0.0000
   3027 O         108.0756  183.2850   52.8166 O.3     432      M_A    0.0000
   3028 H         108.7611  182.2975   50.6366 H       432      M_A    0.0000
   3029 H         110.3756  182.9246   50.9925 H       432      M_A    0.0000
   3030 H         109.6186  184.6295   52.3693 H       432      M_A    0.0000
   3031 H         108.1098  184.8426   51.4928 H       432      M_A    0.0000
   3032 C         108.2687  181.9054   52.5795 C.3     433      M_A    0.0000
   3033 C         108.4070  181.1138   53.8765 C.3     433      M_A    0.0000
   3034 O         107.6451  179.9083   53.8108 O.3     433      M_A    0.0000
   3035 H         107.4390  181.5276   51.9724 H       433      M_A    0.0000
   3036 H         109.1877  181.7895   51.9936 H       433      M_A    0.0000
   3037 H         109.4668  180.9062   54.0832 H       433      M_A    0.0000
   3038 H         108.0340  181.6920   54.7311 H       433      M_A    0.0000
   3039 C         107.6416  179.3693   52.5046 C.3     434      M_A    0.0000
   3040 C         107.8008  177.8518   52.5093 C.3     434      M_A    0.0000
   3041 O         106.6628  177.2273   51.9154 O.3     434      M_A    0.0000
   3042 H         106.7182  179.6683   51.9971 H       434      M_A    0.0000
   3043 H         108.4801  179.8121   51.9550 H       434      M_A    0.0000
   3044 H         108.7287  177.5660   51.9931 H       434      M_A    0.0000
   3045 H         107.8881  177.4694   53.5339 H       434      M_A    0.0000
   3046 C         106.8794  175.8461   51.7095 C.3     435      M_A    0.0000
   3047 C         107.2200  175.1188   53.0069 C.3     435      M_A    0.0000
   3048 O         107.7738  173.8327   52.7291 O.3     435      M_A    0.0000
   3049 H         105.9932  175.4124   51.2341 H       435      M_A    0.0000
   3050 H         107.7171  175.7367   51.0113 H       435      M_A    0.0000
   3051 H         107.9060  175.7268   53.6140 H       435      M_A    0.0000
   3052 H         106.3219  174.9647   53.6180 H       435      M_A    0.0000
   3053 C         108.3475  173.7843   51.4386 C.3     436      M_A    0.0000
   3054 C         109.8709  173.8568   51.4844 C.3     436      M_A    0.0000
   3055 O         110.4229  172.5818   51.8125 O.3     436      M_A    0.0000
   3056 H         108.0101  172.8742   50.9314 H       436      M_A    0.0000
   3057 H         107.9688  174.6408   50.8691 H       436      M_A    0.0000
   3058 H         110.2622  174.2274   50.5261 H       436      M_A    0.0000
   3059 H         110.2073  174.5672   52.2499 H       436      M_A    0.0000
   3060 C         111.7437  172.7002   52.3007 C.3     437      M_A    0.0000
   3061 C         111.8936  172.1105   53.6999 C.3     437      M_A    0.0000
   3062 O         112.0682  170.6954   53.6305 O.3     437      M_A    0.0000
   3063 H         112.4301  172.2213   51.5942 H       437      M_A    0.0000
   3064 H         111.9955  173.7663   52.3364 H       437      M_A    0.0000
   3065 H         112.7305  172.5913   54.2267 H       437      M_A    0.0000
   3066 H         110.9983  172.3018   54.3045 H       437      M_A    0.0000
   3067 C         110.9125  170.0556   53.1287 C.3     438      M_A    0.0000
   3068 C         110.9844  168.5390   53.2798 C.3     438      M_A    0.0000
   3069 O         109.6734  167.9837   53.3838 O.3     438      M_A    0.0000
   3070 H         110.0306  170.4620   53.6353 H       438      M_A    0.0000
   3071 H         110.8262  170.3022   52.0643 H       438      M_A    0.0000
   3072 H         111.5392  168.0996   52.4383 H       438      M_A    0.0000
   3073 H         111.5321  168.2606   54.1888 H       438      M_A    0.0000
   3074 C         109.4382  167.0208   52.3766 C.3     439      M_A    0.0000
   3075 C         108.0759  166.3508   52.5297 C.3     439      M_A    0.0000
   3076 O         107.4550  166.1824   51.2553 O.3     439      M_A    0.0000
   3077 H         109.5359  167.4984   51.3958 H       439      M_A    0.0000
   3078 H         110.2198  166.2562   52.4522 H       439      M_A    0.0000
   3079 H         108.1824  165.3896   53.0528 H       439      M_A    0.0000
   3080 H         107.4041  166.9632   53.1441 H       439      M_A    0.0000
   3081 C         106.1211  165.7344   51.3851 C.3     440      M_A    0.0000
   3082 C         105.4966  165.3920   50.0357 C.3     440      M_A    0.0000
   3083 O         105.1634  164.0052   49.9759 O.3     440      M_A    0.0000
   3084 H         106.0975  164.8733   52.0615 H       440      M_A    0.0000
   3085 H         105.5395  166.5380   51.8513 H       440      M_A    0.0000
   3086 H         104.6147  166.0233   49.8546 H       440      M_A    0.0000
   3087 H         106.1962  165.5975   49.2159 H       440      M_A    0.0000
   3088 C         103.7660  163.8120   49.8942 C.3     441      M_A    0.0000
   3089 C         103.4023  162.3530   49.6349 C.3     441      M_A    0.0000
   3090 O         102.4342  161.9025   50.5824 O.3     441      M_A    0.0000
   3091 H         103.3002  164.1777   50.8156 H       441      M_A    0.0000
   3092 H         103.3890  164.4239   49.0668 H       441      M_A    0.0000
   3093 H         103.0403  162.2296   48.6040 H       441      M_A    0.0000
   3094 H         104.2828  161.7057   49.7318 H       441      M_A    0.0000
   3095 C         101.5498  160.9605   50.0101 C.3     442      M_A    0.0000
   3096 C         100.9569  160.0207   51.0557 C.3     442      M_A    0.0000
   3097 O          99.5370  159.9558   50.9226 O.3     442      M_A    0.0000
   3098 H         100.7628  161.4937   49.4662 H       442      M_A    0.0000
   3099 H         102.1141  160.3684   49.2806 H       442      M_A    0.0000
   3100 H         101.4124  159.0235   50.9716 H       442      M_A    0.0000
   3101 H         101.1758  160.3747   52.0709 H       442      M_A    0.0000
   3102 C          99.0029  158.8451   51.6140 C.3     443      M_A    0.0000
   3103 C          97.5283  159.0365   51.9557 C.3     443      M_A    0.0000
   3104 O          96.7908  157.8472   51.6739 O.3     443      M_A    0.0000
   3105 H          99.1554  157.9427   51.0124 H       443      M_A    0.0000
   3106 H          99.5695  158.7230   52.5442 H       443      M_A    0.0000
   3107 H          97.4183  159.3353   53.0081 H       443      M_A    0.0000
   3108 H          97.0886  159.8450   51.3584 H       443      M_A    0.0000
   3109 C          95.5257  157.8617   52.3035 C.3     444      M_A    0.0000
   3110 C          94.7906  159.1807   52.0846 C.3     444      M_A    0.0000
   3111 O          93.5452  158.9559   51.4240 O.3     444      M_A    0.0000
   3112 H          94.9351  157.0146   51.9384 H       444      M_A    0.0000
   3113 H          95.6827  157.7174   53.3786 H       444      M_A    0.0000
   3114 H          94.6467  159.6987   53.0438 H       444      M_A    0.0000
   3115 H          95.3794  159.8583   51.4538 H       444      M_A    0.0000
   3116 C          92.9328  160.1723   51.0469 C.3     445      M_A    0.0000
   3117 C          91.5650  159.9524   50.4074 C.3     445      M_A    0.0000
   3118 O          90.5658  159.7753   51.4113 O.3     445      M_A    0.0000
   3119 H          92.8586  160.8224   51.9252 H       445      M_A    0.0000
   3120 H          93.5877  160.6686   50.3216 H       445      M_A    0.0000
   3121 H          91.3182  160.7917   49.7413 H       445      M_A    0.0000
   3122 H          91.5648  159.0516   49.7811 H       445      M_A    0.0000
   3123 C          89.5571  158.8820   50.9851 C.3     446      M_A    0.0000
   3124 C          88.9498  158.1041   52.1488 C.3     446      M_A    0.0000
   3125 O          87.5283  158.0528   52.0290 O.3     446      M_A    0.0000
   3126 H          88.7896  159.4429   50.4412 H       446      M_A    0.0000
   3127 H          90.0097  158.1730   50.2825 H       446      M_A    0.0000
   3128 H          89.3836  157.0950   52.1982 H       446      M_A    0.0000
   3129 H          89.1815  158.5863   53.1068 H       446      M_A    0.0000
   3130 C          87.0721  156.7279   51.8463 C.3     447      M_A    0.0000
   3131 C          85.7903  156.4494   52.6258 C.3     447      M_A    0.0000
   3132 O          84.7616  155.9892   51.7495 O.3     447      M_A    0.0000
   3133 H          86.9320  156.5426   50.7760 H       447      M_A    0.0000
   3134 H          87.8568  156.0495   52.2001 H       447      M_A    0.0000
   3135 H          85.9848  155.7247   53.4295 H       447      M_A    0.0000
   3136 H          85.4224  157.3601   53.1146 H       447      M_A    0.0000
   3137 C          84.8943  154.6092   51.4759 C.3     448      M_A    0.0000
   3138 C          83.7017  153.8055   51.9857 C.3     448      M_A    0.0000
   3139 O          83.0396  153.1513   50.9034 O.3     448      M_A    0.0000
   3140 H          85.0330  154.4703   50.3984 H       448      M_A    0.0000
   3141 H          85.8020  154.2523   51.9757 H       448      M_A    0.0000
   3142 H          84.0282  153.0847   52.7491 H       448      M_A    0.0000
   3143 H          82.9674  154.4591   52.4731 H       448      M_A    0.0000
   3144 C          82.4477  151.9367   51.3174 C.3     449      M_A    0.0000
   3145 C          82.1036  151.0338   50.1365 C.3     449      M_A    0.0000
   3146 O          83.2255  150.2260   49.7806 O.3     449      M_A    0.0000
   3147 H          83.1212  151.4316   52.0181 H       449      M_A    0.0000
   3148 H          81.5262  152.1784   51.8593 H       449      M_A    0.0000
   3149 H          81.2255  150.4163   50.3742 H       449      M_A    0.0000
   3150 H          81.8331  151.6274   49.2543 H       449      M_A    0.0000
   3151 C          83.1078  149.7292   48.4629 C.3     450      M_A    0.0000
   3152 C          84.2098  150.2579   47.5495 C.3     450      M_A    0.0000
   3153 O          84.5867  149.2663   46.5942 O.3     450      M_A    0.0000
   3154 H          83.1100  148.6344   48.4922 H       450      M_A    0.0000
   3155 H          82.1365  150.0483   48.0679 H       450      M_A    0.0000
   3156 H          83.8821  151.1842   47.0562 H       450      M_A    0.0000
   3157 H          85.1069  150.5165   48.1258 H       450      M_A    0.0000
   3158 C          83.4886  148.8732   45.7962 C.3     451      M_A    0.0000
   3159 C          83.4372  149.6348   44.4751 C.3     451      M_A    0.0000
   3160 O          83.7602  148.7702   43.3861 O.3     451      M_A    0.0000
   3161 H          83.5382  147.7922   45.6277 H       451      M_A    0.0000
   3162 H          82.5716  149.0790   46.3600 H       451      M_A    0.0000
   3163 H          82.4476  150.0948   44.3405 H       451      M_A    0.0000
   3164 H          84.1630  150.4576   44.4677 H       451      M_A    0.0000
   3165 C          84.0001  149.4998   42.1999 C.3     452      M_A    0.0000
   3166 C          84.1372  148.5891   40.9834 C.3     452      M_A    0.0000
   3167 O          82.8912  148.4823   40.2951 O.3     452      M_A    0.0000
   3168 H          83.1945  150.2284   42.0594 H       452      M_A    0.0000
   3169 H          84.9335  150.0591   42.3312 H       452      M_A    0.0000
   3170 H          84.9306  148.9605   40.3188 H       452      M_A    0.0000
   3171 H          84.4350  147.5765   41.2827 H       452      M_A    0.0000
   3172 C          82.9176  147.4455   39.3354 C.3     453      M_A    0.0000
   3173 C          82.9369  146.0640   39.9830 C.3     453      M_A    0.0000
   3174 O          82.2603  145.1152   39.1585 O.3     453      M_A    0.0000
   3175 H          82.0580  147.5562   38.6659 H       453      M_A    0.0000
   3176 H          83.8250  147.5672   38.7327 H       453      M_A    0.0000
   3177 H          83.9724  145.7532   40.1833 H       453      M_A    0.0000
   3178 H          82.4263  146.0785   40.9540 H       453      M_A    0.0000
   3179 C          82.6608  143.7931   39.4558 C.3     454      M_A    0.0000
   3180 C          83.3625  143.1267   38.2761 C.3     454      M_A    0.0000
   3181 O          84.5550  142.4717   38.7082 O.3     454      M_A    0.0000
   3182 H          83.3034  143.8052   40.3425 H       454      M_A    0.0000
   3183 H          81.7624  143.2169   39.7054 H       454      M_A    0.0000
   3184 H          82.6798  142.4251   37.7755 H       454      M_A    0.0000
   3185 H          83.6504  143.8684   37.5206 H       454      M_A    0.0000
   3186 C          84.2643  141.3047   39.4502 C.3     455      M_A    0.0000
   3187 C          85.3601  140.2514   39.3164 C.3     455      M_A    0.0000
   3188 O          86.4095  140.4993   40.2518 O.3     455      M_A    0.0000
   3189 H          84.1050  141.5784   40.4987 H       455      M_A    0.0000
   3190 H          83.3244  140.8889   39.0697 H       455      M_A    0.0000
   3191 H          84.9371  139.2450   39.4474 H       455      M_A    0.0000
   3192 H          85.8031  140.2711   38.3128 H       455      M_A    0.0000
   3193 C          87.2349  139.3641   40.4159 C.3     456      M_A    0.0000
   3194 C          88.3023  139.2685   39.3298 C.3     456      M_A    0.0000
   3195 O          89.4121  140.1098   39.6433 O.3     456      M_A    0.0000
   3196 H          87.6871  139.3922   41.4131 H       456      M_A    0.0000
   3197 H          86.5975  138.4739   40.3660 H       456      M_A    0.0000
   3198 H          88.6174  138.2233   39.1983 H       456      M_A    0.0000
   3199 H          87.9060  139.5951   38.3602 H       456      M_A    0.0000
   3200 C          89.6118  141.0944   38.6495 C.3     457      M_A    0.0000
   3201 C          91.0152  141.6906   38.7057 C.3     457      M_A    0.0000
   3202 O          91.5495  141.8376   37.3901 O.3     457      M_A    0.0000
   3203 H          89.4073  140.6566   37.6666 H       457      M_A    0.0000
   3204 H          88.8802  141.8935   38.8151 H       457      M_A    0.0000
   3205 H          90.9982  142.6514   39.2401 H       457      M_A    0.0000
   3206 H          91.6966  141.0384   39.2660 H       457      M_A    0.0000
   3207 C          92.2496  143.0571   37.2495 C.3     458      M_A    0.0000
   3208 C          93.6292  142.8587   36.6287 C.3     458      M_A    0.0000
   3209 O          93.6988  143.4915   35.3510 O.3     458      M_A    0.0000
   3210 H          91.6446  143.7500   36.6551 H       458      M_A    0.0000
   3211 H          92.3694  143.4939   38.2476 H       458      M_A    0.0000
   3212 H          94.4081  143.2381   37.3058 H       458      M_A    0.0000
   3213 H          93.8431  141.7930   36.4795 H       458      M_A    0.0000
   3214 C          94.9690  143.3184   34.7565 C.3     459      M_A    0.0000
   3215 C          95.3713  141.8486   34.6795 C.3     459      M_A    0.0000
   3216 O          96.2834  141.6352   33.6022 O.3     459      M_A    0.0000
   3217 H          94.9645  143.7797   33.7632 H       459      M_A    0.0000
   3218 H          95.7032  143.8554   35.3680 H       459      M_A    0.0000
   3219 H          95.8006  141.5219   35.6376 H       459      M_A    0.0000
   3220 H          94.4966  141.2110   34.5004 H       459      M_A    0.0000
   3221 C          97.1891  142.7120   33.4704 C.3     460      M_A    0.0000
   3222 C          98.6305  142.2851   33.7318 C.3     460      M_A    0.0000
   3223 O          99.2814  141.9445   32.5079 O.3     460      M_A    0.0000
   3224 H          97.0812  143.1494   32.4721 H       460      M_A    0.0000
   3225 H          96.9086  143.4796   34.2007 H       460      M_A    0.0000
   3226 H          99.1712  143.0807   34.2644 H       460      M_A    0.0000
   3227 H          98.6665  141.4008   34.3803 H       460      M_A    0.0000
   3228 C          99.6215  140.5735   32.4670 C.3     461      M_A    0.0000
   3229 C         101.0884  140.3563   32.1078 C.3     461      M_A    0.0000
   3230 O         101.6324  139.2715   32.8595 O.3     461      M_A    0.0000
   3231 H          99.3790  140.1163   33.4323 H       461      M_A    0.0000
   3232 H          98.9953  140.0935   31.7063 H       461      M_A    0.0000
   3233 H         101.1931  140.1858   31.0266 H       461      M_A    0.0000
   3234 H         101.6852  141.2477   32.3383 H       461      M_A    0.0000
   3235 C         102.6890  138.6398   32.1655 C.3     462      M_A    0.0000
   3236 C         103.5949  139.6450   31.4606 C.3     462      M_A    0.0000
   3237 O         104.8940  139.6488   32.0522 O.3     462      M_A    0.0000
   3238 H         103.2571  138.0198   32.8672 H       462      M_A    0.0000
   3239 H         102.2483  137.9728   31.4157 H       462      M_A    0.0000
   3240 H         103.6458  139.4211   30.3853 H       462      M_A    0.0000
   3241 H         103.1927  140.6624   31.5447 H       462      M_A    0.0000
   3242 C         105.8096  140.4036   31.2848 C.3     463      M_A    0.0000
   3243 C         107.1329  140.6150   32.0143 C.3     463      M_A    0.0000
   3244 O         108.1838  139.9029   31.3612 O.3     463      M_A    0.0000
   3245 H         105.9643  139.9058   30.3216 H       463      M_A    0.0000
   3246 H         105.3556  141.3807   31.0837 H       463      M_A    0.0000
   3247 H         107.3605  141.6884   32.0841 H       463      M_A    0.0000
   3248 H         107.0764  140.2444   33.0454 H       463      M_A    0.0000
   3249 C         108.3639  140.3502   30.0329 C.3     464      M_A    0.0000
   3250 C         109.4961  141.3666   29.9179 C.3     464      M_A    0.0000
   3251 O         110.7607  140.7052   29.8831 O.3     464      M_A    0.0000
   3252 H         108.5421  139.4849   29.3855 H       464      M_A    0.0000
   3253 H         107.4298  140.8215   29.7064 H       464      M_A    0.0000
   3254 H         109.3505  141.9979   29.0295 H       464      M_A    0.0000
   3255 H         109.5037  142.0450   30.7801 H       464      M_A    0.0000
   3256 C         111.8063  141.5673   30.2837 C.3     465      M_A    0.0000
   3257 C         112.5776  141.0171   31.4798 C.3     465      M_A    0.0000
   3258 O         113.8772  140.5822   31.0801 O.3     465      M_A    0.0000
   3259 H         112.4713  141.7427   29.4313 H       465      M_A    0.0000
   3260 H         111.3619  142.5300   30.5610 H       465      M_A    0.0000
   3261 H         112.6363  141.7746   32.2745 H       465      M_A    0.0000
   3262 H         112.0616  140.1525   31.9157 H       465      M_A    0.0000
   3263 C         113.8252  139.8234   29.8891 C.3     466      M_A    0.0000
   3264 C         114.7672  138.6238   29.9309 C.3     466      M_A    0.0000
   3265 O         114.2030  137.5715   30.7132 O.3     466      M_A    0.0000
   3266 H         112.7915  139.5083   29.7110 H       466      M_A    0.0000
   3267 H         114.1199  140.4769   29.0600 H       466      M_A    0.0000
   3268 H         114.9956  138.2849   28.9102 H       466      M_A    0.0000
   3269 H         115.7273  138.8944   30.3878 H       466      M_A    0.0000
   3270 C         114.1053  137.9349   32.0754 C.3     467      M_A    0.0000
   3271 C         114.8425  136.9563   32.9849 C.3     467      M_A    0.0000
   3272 O         116.0273  137.5557   33.5091 O.3     467      M_A    0.0000
   3273 H         114.4851  138.9544   32.2013 H       467      M_A    0.0000
   3274 H         113.0436  137.9407   32.3473 H       467      M_A    0.0000
   3275 H         114.1778  136.6130   33.7907 H       467      M_A    0.0000
   3276 H         115.1456  136.0585   32.4320 H       467      M_A    0.0000
   3277 C         116.8148  136.6162   34.2120 C.3     468      M_A    0.0000
   3278 C         118.1091  136.2858   33.4746 C.3     468      M_A    0.0000
   3279 O         119.1928  136.1639   34.3958 O.3     468      M_A    0.0000
   3280 H         117.0194  137.0017   35.2165 H       468      M_A    0.0000
   3281 H         116.2257  135.6986   34.3229 H       468      M_A    0.0000
   3282 H         117.9840  135.3690   32.8806 H       468      M_A    0.0000
   3283 H         118.3697  137.0801   32.7640 H       468      M_A    0.0000
   3284 C         119.2142  134.8882   35.0031 C.3     469      M_A    0.0000
   3285 C         120.5463  134.1744   34.7926 C.3     469      M_A    0.0000
   3286 O         121.4454  134.4670   35.8621 O.3     469      M_A    0.0000
   3287 H         118.9878  134.9961   36.0692 H       469      M_A    0.0000
   3288 H         118.4152  134.2875   34.5537 H       469      M_A    0.0000
   3289 H         120.3847  133.0916   34.6909 H       469      M_A    0.0000
   3290 H         121.0250  134.5032   33.8617 H       469      M_A    0.0000
   3291 C         122.2796  133.3641   36.1529 C.3     470      M_A    0.0000
   3292 C         122.8499  132.7267   34.8893 C.3     470      M_A    0.0000
   3293 O         124.0279  133.4150   34.4694 O.3     470      M_A    0.0000
   3294 H         123.0792  133.6888   36.8273 H       470      M_A    0.0000
   3295 H         121.6788  132.6184   36.6860 H       470      M_A    0.0000
   3296 H         123.0500  131.6591   35.0598 H       470      M_A    0.0000
   3297 H         122.1284  132.7769   34.0642 H       470      M_A    0.0000
   3298 C         124.9683  132.5291   33.8969 C.3     471      M_A    0.0000
   3299 C         125.6463  133.1273   32.6678 C.3     471      M_A    0.0000
   3300 O         126.8970  133.7165   33.0233 O.3     471      M_A    0.0000
   3301 H         125.7048  132.2492   34.6577 H       471      M_A    0.0000
   3302 H         124.4359  131.6182   33.6001 H       471      M_A    0.0000
   3303 H         125.7727  132.3583   31.8922 H       471      M_A    0.0000
   3304 H         125.0267  133.9154   32.2222 H       471      M_A    0.0000
   3305 C         127.7250  133.8946   31.8920 C.3     472      M_A    0.0000
   3306 C         128.1729  135.3442   31.7308 C.3     472      M_A    0.0000
   3307 O         129.5737  135.4084   31.4633 O.3     472      M_A    0.0000
   3308 H         128.5853  133.2212   31.9693 H       472      M_A    0.0000
   3309 H         127.1520  133.5998   31.0053 H       472      M_A    0.0000
   3310 H         127.5914  135.8351   30.9372 H       472      M_A    0.0000
   3311 H         127.9871  135.9169   32.6480 H       472      M_A    0.0000
   3312 C         129.8945  134.7888   30.2344 C.3     473      M_A    0.0000
   3313 C         130.9430  135.5742   29.4520 C.3     473      M_A    0.0000
   3314 O         132.2209  134.9468   29.5588 O.3     473      M_A    0.0000
   3315 H         130.2306  133.7645   30.4276 H       473      M_A    0.0000
   3316 H         128.9773  134.7297   29.6373 H       473      M_A    0.0000
   3317 H         130.6345  135.6769   28.4017 H       473      M_A    0.0000
   3318 H         131.0437  136.5937   29.8447 H       473      M_A    0.0000
   3319 C         132.1100  133.5385   29.5254 C.3     474      M_A    0.0000
   3320 C         133.0868  132.9090   28.5365 C.3     474      M_A    0.0000
   3321 O         134.1400  132.2402   29.2303 O.3     474      M_A    0.0000
   3322 H         132.2613  133.1440   30.5358 H       474      M_A    0.0000
   3323 H         131.0872  133.2880   29.2215 H       474      M_A    0.0000
   3324 H         132.5545  132.2236   27.8613 H       474      M_A    0.0000
   3325 H         133.5473  133.6738   27.8988 H       474      M_A    0.0000
   3326 C         134.6472  131.1559   28.4795 C.3     475      M_A    0.0000
   3327 C         136.1684  131.1964   28.3679 C.3     475      M_A    0.0000
   3328 O         136.7668  130.4051   29.3944 O.3     475      M_A    0.0000
   3329 H         134.3090  130.2180   28.9329 H       475      M_A    0.0000
   3330 H         134.2162  131.2119   27.4733 H       475      M_A    0.0000
   3331 H         136.4847  130.8618   27.3694 H       475      M_A    0.0000
   3332 H         136.5432  132.2212   28.4825 H       475      M_A    0.0000
   3333 C         137.7985  129.5870   28.8815 C.3     476      M_A    0.0000
   3334 C         137.5935  128.1164   29.2330 C.3     476      M_A    0.0000
   3335 O         138.1356  127.8297   30.5221 O.3     476      M_A    0.0000
   3336 H         137.8619  129.7292   27.7974 H       476      M_A    0.0000
   3337 H         138.7456  129.9267   29.3163 H       476      M_A    0.0000
   3338 H         136.5257  127.8593   29.1820 H       476      M_A    0.0000
   3339 H         138.1019  127.4656   28.5107 H       476      M_A    0.0000
   3340 C         137.5611  126.6640   31.0771 C.3     477      M_A    0.0000
   3341 C         137.5649  125.4977   30.0933 C.3     477      M_A    0.0000
   3342 O         138.7669  124.7383   30.2220 O.3     477      M_A    0.0000
   3343 H         138.0950  126.4061   31.9980 H       477      M_A    0.0000
   3344 H         136.5247  126.8955   31.3486 H       477      M_A    0.0000
   3345 H         136.6762  124.8687   30.2469 H       477      M_A    0.0000
   3346 H         137.5128  125.8572   29.0580 H       477      M_A    0.0000
   3347 C         138.9836  123.9175   29.0923 C.3     478      M_A    0.0000
   3348 C         139.3967  124.7260   27.8660 C.3     478      M_A    0.0000
   3349 O         140.7352  124.4083   27.4848 O.3     478      M_A    0.0000
   3350 H         139.7363  123.1612   29.3392 H       478      M_A    0.0000
   3351 H         138.0467  123.3931   28.8721 H       478      M_A    0.0000
   3352 H         138.6930  124.5489   27.0400 H       478      M_A    0.0000
   3353 H         139.3615  125.8024   28.0753 H       478      M_A    0.0000
   3354 C         140.9218  123.0126   27.3661 C.3     479      M_A    0.0000
   3355 C         139.7865  122.3451   26.5958 C.3     479      M_A    0.0000
   3356 O         140.2985  121.3401   25.7207 O.3     479      M_A    0.0000
   3357 H         141.8891  122.8207   26.8898 H       479      M_A    0.0000
   3358 H         140.9606  122.5907   28.3769 H       479      M_A    0.0000
   3359 H         139.0474  121.9278   27.2949 H       479      M_A    0.0000
   3360 H         139.2485  123.0752   25.9783 H       479      M_A    0.0000
   3361 C         141.6761  121.1155   25.9410 C.3     480      M_A    0.0000
   3362 C         141.9600  119.6854   26.3908 C.3     480      M_A    0.0000
   3363 O         143.2286  119.2496   25.9023 O.3     480      M_A    0.0000
   3364 H         142.2285  121.3595   25.0273 H       480      M_A    0.0000
   3365 H         142.0092  121.8062   26.7241 H       480      M_A    0.0000
   3366 H         141.9079  119.6148   27.4868 H       480      M_A    0.0000
   3367 H         141.2027  118.9937   26.0012 H       480      M_A    0.0000
   3368 C         144.2590  120.1451   26.2677 C.3     481      M_A    0.0000
   3369 C         145.4748  119.4199   26.8370 C.3     481      M_A    0.0000
   3370 O         146.3165  118.9512   25.7835 O.3     481      M_A    0.0000
   3371 H         144.5317  120.7505   25.3968 H       481      M_A    0.0000
   3372 H         143.8610  120.8232   27.0313 H       481      M_A    0.0000
   3373 H         146.0236  120.0805   27.5235 H       481      M_A    0.0000
   3374 H         145.1702  118.5466   27.4272 H       481      M_A    0.0000
   3375 C         146.2820  117.5422   25.6819 C.3     482      M_A    0.0000
   3376 C         144.8649  117.0162   25.4742 C.3     482      M_A    0.0000
   3377 O         144.8830  115.8278   24.6833 O.3     482      M_A    0.0000
   3378 H         146.9441  117.2263   24.8687 H       482      M_A    0.0000
   3379 H         146.6811  117.1272   26.6145 H       482      M_A    0.0000
   3380 H         144.3783  116.8430   26.4449 H       482      M_A    0.0000
   3381 H         144.2461  117.7526   24.9464 H       482      M_A    0.0000
   3382 C         146.1292  115.1673   24.7709 C.3     483      M_A    0.0000
   3383 C         145.9754  113.7012   25.1650 C.3     483      M_A    0.0000
   3384 O         146.5027  112.8512   24.1465 O.3     483      M_A    0.0000
   3385 H         146.6543  115.2666   23.8149 H       483      M_A    0.0000
   3386 H         146.7286  115.6783   25.5330 H       483      M_A    0.0000
   3387 H         146.4628  113.5154   26.1329 H       483      M_A    0.0000
   3388 H         144.9183  113.4390   25.2970 H       483      M_A    0.0000
   3389 C         145.8948  111.5758   24.1713 C.3     484      M_A    0.0000
   3390 C         146.7034  110.5393   23.3968 C.3     484      M_A    0.0000
   3391 O         146.6668  109.2768   24.0623 O.3     484      M_A    0.0000
   3392 H         145.7520  111.2682   25.2127 H       484      M_A    0.0000
   3393 H         144.9031  111.6662   23.7134 H       484      M_A    0.0000
   3394 H         146.3293  110.4589   22.3660 H       484      M_A    0.0000
   3395 H         147.7558  110.8397   23.3201 H       484      M_A    0.0000
   3396 C         146.2642  108.2426   23.1876 C.3     485      M_A    0.0000
   3397 C         146.9922  106.9326   23.4739 C.3     485      M_A    0.0000
   3398 O         146.0993  105.9793   24.0500 O.3     485      M_A    0.0000
   3399 H         145.1787  108.1156   23.2600 H       485      M_A    0.0000
   3400 H         146.4932  108.5590   22.1635 H       485      M_A    0.0000
   3401 H         147.4516  106.5446   22.5534 H       485      M_A    0.0000
   3402 H         147.8123  107.0868   24.1862 H       485      M_A    0.0000
   3403 C         146.7876  104.8270   24.4918 C.3     486      M_A    0.0000
   3404 C         146.0207  104.0822   25.5805 C.3     486      M_A    0.0000
   3405 O         145.9475  102.6891   25.2774 O.3     486      M_A    0.0000
   3406 H         146.9852  104.1773   23.6325 H       486      M_A    0.0000
   3407 H         147.7554  105.1465   24.8952 H       486      M_A    0.0000
   3408 H         146.4893  104.2542   26.5602 H       486      M_A    0.0000
   3409 H         144.9921  104.4553   25.6613 H       486      M_A    0.0000
   3410 C         144.9568  102.0430   26.0505 C.3     487      M_A    0.0000
   3411 C         143.5489  102.3350   25.5399 C.3     487      M_A    0.0000
   3412 O         142.7245  101.1751   25.6539 O.3     487      M_A    0.0000
   3413 H         145.1579  100.9664   26.0616 H       487      M_A    0.0000
   3414 H         145.0428  102.4068   27.0808 H       487      M_A    0.0000
   3415 H         143.1171  103.1875   26.0837 H       487      M_A    0.0000
   3416 H         143.5671  102.6223   24.4811 H       487      M_A    0.0000
   3417 C         143.0222  100.4421   26.8247 C.3     488      M_A    0.0000
   3418 C         141.7618   99.9506   27.5303 C.3     488      M_A    0.0000
   3419 O         141.2712   98.7627   26.9088 O.3     488      M_A    0.0000
   3420 H         143.6813   99.6067   26.5654 H       488      M_A    0.0000
   3421 H         143.5745  101.1016   27.5039 H       488      M_A    0.0000
   3422 H         141.9638   99.7885   28.5989 H       488      M_A    0.0000
   3423 H         140.9642  100.7021   27.4781 H       488      M_A    0.0000
   3424 C         140.4781   99.0606   25.7778 C.3     489      M_A    0.0000
   3425 C         140.6806   98.0503   24.6524 C.3     489      M_A    0.0000
   3426 O         139.5316   97.2138   24.5180 O.3     489      M_A    0.0000
   3427 H         139.4268   99.1089   26.0812 H       489      M_A    0.0000
   3428 H         140.7651  100.0551   25.4174 H       489      M_A    0.0000
   3429 H         140.9083   98.5712   23.7112 H       489      M_A    0.0000
   3430 H         141.5388   97.3989   24.8593 H       489      M_A    0.0000
   3431 C         139.5328   96.5282   23.2824 C.3     490      M_A    0.0000
   3432 C         140.8809   95.8766   22.9886 C.3     490      M_A    0.0000
   3433 O         140.7389   94.4604   22.8787 O.3     490      M_A    0.0000
   3434 H         138.7272   95.7862   23.2846 H       490      M_A    0.0000
   3435 H         139.3112   97.2556   22.4931 H       490      M_A    0.0000
   3436 H         141.3195   96.3064   22.0766 H       490      M_A    0.0000
   3437 H         141.5964   96.0732   23.7968 H       490      M_A    0.0000
   3438 C         141.9714   93.8389   22.5760 C.3     491      M_A    0.0000
   3439 C         141.8133   92.3422   22.3251 C.3     491      M_A    0.0000
   3440 O         142.5775   91.9419   21.1877 O.3     491      M_A    0.0000
   3441 H         142.4212   94.3392   21.7118 H       491      M_A    0.0000
   3442 H         142.6419   93.9863   23.4304 H       491      M_A    0.0000
   3443 H         142.1028   91.7745   23.2212 H       491      M_A    0.0000
   3444 H         140.7656   92.0864   22.1235 H       491      M_A    0.0000
   3445 C         143.9606   92.1421   21.3974 C.3     492      M_A    0.0000
   3446 C         144.4823   91.3434   22.5881 C.3     492      M_A    0.0000
   3447 O         144.9287   90.0539   22.1689 O.3     492      M_A    0.0000
   3448 H         144.5019   91.8845   20.4808 H       492      M_A    0.0000
   3449 H         144.1214   93.2093   21.5884 H       492      M_A    0.0000
   3450 H         145.2843   91.8987   23.0955 H       492      M_A    0.0000
   3451 H         143.6930   91.1910   23.3348 H       492      M_A    0.0000
   3452 C         144.1324   89.5477   21.1170 C.3     493      M_A    0.0000
   3453 C         143.3112   88.3368   21.5501 C.3     493      M_A    0.0000
   3454 O         141.9939   88.4043   21.0040 O.3     493      M_A    0.0000
   3455 H         143.4874   90.3484   20.7398 H       493      M_A    0.0000
   3456 H         144.8013   89.2491   20.3016 H       493      M_A    0.0000
   3457 H         143.8196   87.4079   21.2542 H       493      M_A    0.0000
   3458 H         143.2126   88.2996   22.6422 H       493      M_A    0.0000
   3459 C         141.9639   87.9457   19.6677 C.3     494      M_A    0.0000
   3460 C         140.6485   87.2506   19.3287 C.3     494      M_A    0.0000
   3461 O         140.4403   87.2347   17.9165 O.3     494      M_A    0.0000
   3462 H         142.1491   88.7905   18.9958 H       494      M_A    0.0000
   3463 H         142.7857   87.2323   19.5377 H       494      M_A    0.0000
   3464 H         140.6384   86.2334   19.7459 H       494      M_A    0.0000
   3465 H         139.7985   87.7773   19.7802 H       494      M_A    0.0000
   3466 C         139.3116   86.4588   17.5689 C.3     495      M_A    0.0000
   3467 C         139.6815   85.2705   16.6861 C.3     495      M_A    0.0000
   3468 O         138.9933   84.0955   17.1143 O.3     495      M_A    0.0000
   3469 H         138.8085   86.1297   18.4843 H       495      M_A    0.0000
   3470 H         138.6149   87.1039   17.0214 H       495      M_A    0.0000
   3471 H         139.4657   85.4988   15.6324 H       495      M_A    0.0000
   3472 H         140.7569   85.0599   16.7416 H       495      M_A    0.0000
   3473 C         138.9976   83.0993   16.1121 C.3     496      M_A    0.0000
   3474 C         139.6428   81.8032   16.5936 C.3     496      M_A    0.0000
   3475 O         139.0043   80.6744   15.9968 O.3     496      M_A    0.0000
   3476 H         137.9699   82.9276   15.7744 H       496      M_A    0.0000
   3477 H         139.5673   83.4831   15.2580 H       496      M_A    0.0000
   3478 H         140.7209   81.8130   16.3780 H       496      M_A    0.0000
   3479 H         139.5472   81.6976   17.6815 H       496      M_A    0.0000
   3480 C         139.9223   79.8879   15.2650 C.3     497      M_A    0.0000
   3481 C         139.5979   78.3994   15.3492 C.3     497      M_A    0.0000
   3482 O         139.9342   77.7439   14.1265 O.3     497      M_A    0.0000
   3483 H         139.9373   80.2310   14.2250 H       497      M_A    0.0000
   3484 H         140.9206   80.0575   15.6843 H       497      M_A    0.0000
   3485 H         140.1201   77.9449   16.2034 H       497      M_A    0.0000
   3486 H         138.5263   78.2404   15.5232 H       497      M_A    0.0000
   3487 C         140.6148   76.5280   14.3617 C.3     498      M_A    0.0000
   3488 C         139.6728   75.3280   14.3331 C.3     498      M_A    0.0000
   3489 O         140.3536   74.1687   13.8530 O.3     498      M_A    0.0000
   3490 H         141.4167   76.4187   13.6238 H       498      M_A    0.0000
   3491 H         141.0813   76.5889   15.3516 H       498      M_A    0.0000
   3492 H         139.2464   75.1563   15.3319 H       498      M_A    0.0000
   3493 H         138.8236   75.5113   13.6629 H       498      M_A    0.0000
   3494 C         141.4475   73.8311   14.6814 C.3     499      M_A    0.0000
   3495 C         141.5667   72.3243   14.8895 C.3     499      M_A    0.0000
   3496 O         142.7609   71.8284   14.2846 O.3     499      M_A    0.0000
   3497 H         142.3647   74.2441   14.2481 H       499      M_A    0.0000
   3498 H         141.2946   74.3124   15.6542 H       499      M_A    0.0000
   3499 H         141.5328   72.0854   15.9622 H       499      M_A    0.0000
   3500 H         140.7219   71.7965   14.4295 H       499      M_A    0.0000
   3501 C         142.8023   70.4160   14.3037 C.3     500      M_A    0.0000
   3502 C         141.7761   69.7987   13.3583 C.3     500      M_A    0.0000
   3503 O         142.2523   68.5541   12.8464 O.3     500      M_A    0.0000
   3504 H         143.8167   70.0849   14.0568 H       500      M_A    0.0000
   3505 H         142.5858   70.0863   15.3263 H       500      M_A    0.0000
   3506 H         140.8117   69.6769   13.8722 H       500      M_A    0.0000
   3507 H         141.5872   70.4561   12.5005 H       500      M_A    0.0000
   3508 C         141.2459   67.5626   12.8783 C.3     501      M_A    0.0000
   3509 C         141.6237   66.3343   12.0557 C.3     501      M_A    0.0000
   3510 O         141.1712   65.1428   12.6987 O.3     501      M_A    0.0000
   3511 H         141.0424   67.2933   13.9202 H       501      M_A    0.0000
   3512 H         140.3298   67.9989   12.4638 H       501      M_A    0.0000
   3513 H         141.2160   66.4190   11.0381 H       501      M_A    0.0000
   3514 H         142.7125   66.2551   11.9458 H       501      M_A    0.0000
   3515 C         141.1779   64.0423   11.8124 C.3     502      M_A    0.0000
   3516 C         140.2392   62.9302   12.2709 C.3     502      M_A    0.0000
   3517 O         139.8090   62.1475   11.1573 O.3     502      M_A    0.0000
   3518 H         140.9165   64.3910   10.8077 H       502      M_A    0.0000
   3519 H         142.2001   63.6489   11.7712 H       502      M_A    0.0000
   3520 H         140.7319   62.3070   13.0311 H       502      M_A    0.0000
   3521 H         139.3420   63.3451   12.7470 H       502      M_A    0.0000
   3522 C         140.8574   61.3454   10.6529 C.3     503      M_A    0.0000
   3523 C         140.3708   59.9614   10.2335 C.3     503      M_A    0.0000
   3524 O         141.2736   59.3766    9.2951 O.3     503      M_A    0.0000
   3525 H         141.3354   61.8666    9.8166 H       503      M_A    0.0000
   3526 H         141.6065   61.2329   11.4450 H       503      M_A    0.0000
   3527 H         140.2421   59.3204   11.1175 H       503      M_A    0.0000
   3528 H         139.3875   60.0208    9.7503 H       503      M_A    0.0000
   3529 C         142.5482   59.1642    9.8670 C.3     504      M_A    0.0000
   3530 C         142.7504   57.7140   10.2965 C.3     504      M_A    0.0000
   3531 O         143.5792   57.0256    9.3600 O.3     504      M_A    0.0000
   3532 H         143.3172   59.4755    9.1519 H       504      M_A    0.0000
   3533 H         142.6341   59.8102   10.7482 H       504      M_A    0.0000
   3534 H         143.1740   57.6740   11.3103 H       504      M_A    0.0000
   3535 H         141.7926   57.1808   10.3415 H       504      M_A    0.0000
   3536 C         143.2536   55.6522    9.2931 C.3     505      M_A    0.0000
   3537 C         144.3298   54.7755    9.9267 C.3     505      M_A    0.0000
   3538 O         143.7546   53.5812   10.4565 O.3     505      M_A    0.0000
   3539 H         142.2812   55.4917    9.7708 H       505      M_A    0.0000
   3540 H         143.1524   55.3809    8.2360 H       505      M_A    0.0000
   3541 H         145.1159   54.5490    9.1920 H       505      M_A    0.0000
   3542 H         144.8240   55.2978   10.7554 H       505      M_A    0.0000
   3543 C         142.6439   53.1587    9.6918 C.3     506      M_A    0.0000
   3544 C         142.5673   51.6388    9.5819 C.3     506      M_A    0.0000
   3545 O         141.2396   51.1843    9.8435 O.3     506      M_A    0.0000
   3546 H         141.7294   53.5697   10.1327 H       506      M_A    0.0000
   3547 H         142.7464   53.5822    8.6862 H       506      M_A    0.0000
   3548 H         142.9138   51.3121    8.5908 H       506      M_A    0.0000
   3549 H         143.2291   51.1584   10.3133 H       506      M_A    0.0000
   3550 C         141.0323   49.8783    9.3452 C.3     507      M_A    0.0000
   3551 C         141.9382   48.8547   10.0232 C.3     507      M_A    0.0000
   3552 O         141.3496   47.5550    9.9736 O.3     507      M_A    0.0000
   3553 H         139.9765   49.6132    9.4659 H       507      M_A    0.0000
   3554 H         141.2508   49.8888    8.2712 H       507      M_A    0.0000
   3555 H         142.9337   48.8608    9.5565 H       507      M_A    0.0000
   3556 H         142.0919   49.1055   11.0802 H       507      M_A    0.0000
   3557 C         142.0912   46.6827    9.1452 C.3     508      M_A    0.0000
   3558 C         141.5975   45.2421    9.2409 C.3     508      M_A    0.0000
   3559 O         141.5964   44.6269    7.9527 O.3     508      M_A    0.0000
   3560 H         142.0486   47.0475    8.1134 H       508      M_A    0.0000
   3561 H         143.1381   46.7209    9.4673 H       508      M_A    0.0000
   3562 H         142.2142   44.6762    9.9538 H       508      M_A    0.0000
   3563 H         140.5701   45.2038    9.6241 H       508      M_A    0.0000
   3564 C         141.9726   43.2669    8.0288 C.3     509      M_A    0.0000
   3565 C         141.2309   42.5272    9.1383 C.3     509      M_A    0.0000
   3566 O         140.5025   41.4223    8.6031 O.3     509      M_A    0.0000
   3567 H         141.8019   42.7939    7.0558 H       509      M_A    0.0000
   3568 H         143.0486   43.2257    8.2331 H       509      M_A    0.0000
   3569 H         141.9373   42.2018    9.9155 H       509      M_A    0.0000
   3570 H         140.5086   43.1870    9.6352 H       509      M_A    0.0000
   3571 C         140.8625   40.2107    9.2351 C.3     510      M_A    0.0000
   3572 C         139.7938   39.1350    9.0653 C.3     510      M_A    0.0000
   3573 O         140.3626   37.9466    8.5158 O.3     510      M_A    0.0000
   3574 H         141.8275   39.8749    8.8407 H       510      M_A    0.0000
   3575 H         140.9940   40.4143   10.3040 H       510      M_A    0.0000
   3576 H         139.3009   38.9345   10.0276 H       510      M_A    0.0000
   3577 H         139.0056   39.4695    8.3793 H       510      M_A    0.0000
   3578 C         139.7397   36.7882    9.0326 C.3     511      M_A    0.0000
   3579 C         139.3410   35.8108    7.9308 C.3     511      M_A    0.0000
   3580 O         139.6752   34.4737    8.3030 O.3     511      M_A    0.0000
   3581 H         140.4106   36.3148    9.7573 H       511      M_A    0.0000
   3582 H         138.8383   37.1021    9.5713 H       511      M_A    0.0000
   3583 H         138.2688   35.9075    7.7074 H       511      M_A    0.0000
   3584 H         139.8717   36.0342    6.9969 H       511      M_A    0.0000
   3585 C         138.5217   33.6659    8.4202 C.3     512      M_A    0.0000
   3586 C         138.7065   32.3021    7.7612 C.3     512      M_A    0.0000
   3587 O         138.0383   31.2887    8.5123 O.3     512      M_A    0.0000
   3588 H         138.2647   33.5613    9.4797 H       512      M_A    0.0000
   3589 H         137.6931   34.1880    7.9281 H       512      M_A    0.0000
   3590 H         138.3486   32.3311    6.7220 H       512      M_A    0.0000
   3591 H         139.7682   32.0297    7.7138 H       512      M_A    0.0000
   3592 C         136.7542   31.0182    7.9880 C.3     513      M_A    0.0000
   3593 C         136.4336   29.5264    7.9954 C.3     513      M_A    0.0000
   3594 O         135.0974   29.3039    8.4457 O.3     513      M_A    0.0000
   3595 H         136.0094   31.5854    8.5564 H       513      M_A    0.0000
   3596 H         136.7290   31.3811    6.9542 H       513      M_A    0.0000
   3597 H         136.5950   29.0986    6.9954 H       513      M_A    0.0000
   3598 H         137.1036   28.9842    8.6743 H       513      M_A    0.0000
   3599 C         134.8381   27.9279    8.6360 C.3     514      M_A    0.0000
   3600 C         133.7535   27.4125    7.6947 C.3     514      M_A    0.0000
   3601 O         134.1427   26.1662    7.1173 O.3     514      M_A    0.0000
   3602 H         135.7706   27.3676    8.5091 H       514      M_A    0.0000
   3603 H         134.5054   27.7876    9.6709 H       514      M_A    0.0000
   3604 H         132.7971   27.3238    8.2300 H       514      M_A    0.0000
   3605 H         133.5814   28.1166    6.8711 H       514      M_A    0.0000
   3606 C         133.9707   25.0986    8.0270 C.3     515      M_A    0.0000
   3607 C         133.8017   23.7596    7.3153 C.3     515      M_A    0.0000
   3608 O         134.9345   22.9226    7.5480 O.3     515      M_A    0.0000
   3609 H         134.8217   25.0755    8.7159 H       515      M_A    0.0000
   3610 H         133.0707   25.3017    8.6186 H       515      M_A    0.0000
   3611 H         132.8710   23.2721    7.6397 H       515      M_A    0.0000
   3612 H         133.7141   23.8997    6.2306 H       515      M_A    0.0000
   3613 C         134.6156   21.5581    7.3658 C.3     516      M_A    0.0000
   3614 C         135.4514   20.9154    6.2628 C.3     516      M_A    0.0000
   3615 O         136.0897   19.7325    6.7435 O.3     516      M_A    0.0000
   3616 H         134.7441   21.0310    8.3172 H       516      M_A    0.0000
   3617 H         133.5564   21.4932    7.0915 H       516      M_A    0.0000
   3618 H         134.8233   20.7027    5.3858 H       516      M_A    0.0000
   3619 H         136.2392   21.5974    5.9194 H       516      M_A    0.0000
   3620 C         137.1178   20.0371    7.6639 C.3     517      M_A    0.0000
   3621 C         137.4035   18.8752    8.6108 C.3     517      M_A    0.0000
   3622 O         138.7772   18.8724    8.9994 O.3     517      M_A    0.0000
   3623 H         138.0178   20.3271    7.1113 H       517      M_A    0.0000
   3624 H         136.7968   20.9038    8.2530 H       517      M_A    0.0000
   3625 H         136.7404   18.9272    9.4863 H       517      M_A    0.0000
   3626 H         137.1976   17.9132    8.1251 H       517      M_A    0.0000
   3627 C         139.1647   17.6174    9.5205 C.3     518      M_A    0.0000
   3628 C         140.0322   17.7568   10.7680 C.3     518      M_A    0.0000
   3629 O         139.7383   16.7169   11.7007 O.3     518      M_A    0.0000
   3630 H         138.2677   17.0238    9.7271 H       518      M_A    0.0000
   3631 H         139.7377   17.0936    8.7468 H       518      M_A    0.0000
   3632 H         141.0965   17.7573   10.4919 H       518      M_A    0.0000
   3633 H         139.8442   18.7130   11.2720 H       518      M_A    0.0000
   3634 C         140.0623   15.4452   11.1767 C.3     519      M_A    0.0000
   3635 C         141.1660   14.7590   11.9761 C.3     519      M_A    0.0000
   3636 O         140.9010   13.3616   12.0977 O.3     519      M_A    0.0000
   3637 H         139.1565   14.8303   11.1450 H       519      M_A    0.0000
   3638 H         140.4054   15.5833   10.1449 H       519      M_A    0.0000
   3639 H         142.1437   14.9412   11.5071 H       519      M_A    0.0000
   3640 H         141.2297   15.1708   12.9910 H       519      M_A    0.0000
   3641 C         139.8068   13.1155   12.9574 C.3     520      M_A    0.0000
   3642 C         139.2452   11.7075   12.7834 C.3     520      M_A    0.0000
   3643 O         140.0861   10.7502   13.4271 O.3     520      M_A    0.0000
   3644 H         140.1188   13.2916   13.9924 H       520      M_A    0.0000
   3645 H         139.0215   13.8423   12.7198 H       520      M_A    0.0000
   3646 H         138.2164   11.6590   13.1684 H       520      M_A    0.0000
   3647 H         139.1901   11.4353   11.7220 H       520      M_A    0.0000
   3648 C         141.4318   10.8859   13.0179 C.3     521      M_A    0.0000
   3649 C         142.0133    9.5694   12.5112 C.3     521      M_A    0.0000
   3650 O         142.3141    9.6582   11.1185 O.3     521      M_A    0.0000
   3651 H         141.4956   11.6667   12.2526 H       521      M_A    0.0000
   3652 H         142.0150   11.2214   13.8831 H       521      M_A    0.0000
   3653 H         142.9039    9.2978   13.0961 H       521      M_A    0.0000
   3654 H         141.2973    8.7482   12.6409 H       521      M_A    0.0000
   3655 C         143.4957    8.9522   10.7985 C.3     522      M_A    0.0000
   3656 C         143.5101    7.5521   11.4049 C.3     522      M_A    0.0000
   3657 O         142.9864    6.6002   10.4789 O.3     522      M_A    0.0000
   3658 H         143.6044    8.9124    9.7094 H       522      M_A    0.0000
   3659 H         144.3452    9.5194   11.1959 H       522      M_A    0.0000
   3660 H         144.5293    7.2852   11.7194 H       522      M_A    0.0000
   3661 H         142.8879    7.5089   12.3076 H       522      M_A    0.0000
   3662 C         144.0002    6.0796    9.6434 C.3     523      M_A    0.0000
   3663 C         144.2350    4.5914    9.8846 C.3     523      M_A    0.0000
   3664 O         143.2295    3.8142    9.2342 O.3     523      M_A    0.0000
   3665 H         143.7368    6.2739    8.5983 H       523      M_A    0.0000
   3666 H         144.9268    6.6241    9.8585 H       523      M_A    0.0000
   3667 H         145.2417    4.3063    9.5467 H       523      M_A    0.0000
   3668 H         144.1911    4.3555   10.9552 H       523      M_A    0.0000
   3669 C         142.4202    3.1293   10.1685 C.3     524      M_A    0.0000
   3670 C         140.9326    3.3168    9.8857 C.3     524      M_A    0.0000
   3671 O         140.2035    3.4459   11.1062 O.3     524      M_A    0.0000
   3672 H         142.6923    2.0684   10.1669 H       524      M_A    0.0000
   3673 H         142.6447    3.5276   11.1646 H       524      M_A    0.0000
   3674 H         140.7772    4.1879    9.2331 H       524      M_A    0.0000
   3675 H         140.5231    2.4523    9.3483 H       524      M_A    0.0000
   3676 C         140.2716    4.7634   11.6124 C.3     525      M_A    0.0000
   3677 C         139.5294    5.7584   10.7252 C.3     525      M_A    0.0000
   3678 O         138.2224    6.0110   11.2410 O.3     525      M_A    0.0000
   3679 H         139.8775    4.7745   12.6342 H       525      M_A    0.0000
   3680 H         141.3279    5.0515   11.6615 H       525      M_A    0.0000
   3681 H         140.1086    6.6883   10.6308 H       525      M_A    0.0000
   3682 H         139.4107    5.3648    9.7079 H       525      M_A    0.0000
   3683 C         137.9279    7.3930   11.2496 C.3     526      M_A    0.0000
   3684 C         138.6192    8.1345   10.1092 C.3     526      M_A    0.0000
   3685 O         137.6654    8.5510    9.1321 O.3     526      M_A    0.0000
   3686 H         136.8418    7.5272   11.2073 H       526      M_A    0.0000
   3687 H         138.2760    7.8059   12.2034 H       526      M_A    0.0000
   3688 H         139.1884    8.9892   10.5021 H       526      M_A    0.0000
   3689 H         139.3461    7.4867    9.6034 H       526      M_A    0.0000
   3690 C         137.5487    9.9587    9.0905 C.3     527      M_A    0.0000
   3691 C         138.8768   10.6536    9.3756 C.3     527      M_A    0.0000
   3692 O         139.1914   11.5783    8.3345 O.3     527      M_A    0.0000
   3693 H         137.1487   10.2554    8.1150 H       527      M_A    0.0000
   3694 H         136.8205   10.2591    9.8526 H       527      M_A    0.0000
   3695 H         138.8421   11.1513   10.3554 H       527      M_A    0.0000
   3696 H         139.6969    9.9267    9.4282 H       527      M_A    0.0000
   3697 C         139.5355   12.8461    8.8553 C.3     528      M_A    0.0000
   3698 C         140.9574   12.8730    9.4082 C.3     528      M_A    0.0000
   3699 O         141.8983   13.0987    8.3585 O.3     528      M_A    0.0000
   3700 H         139.4007   13.6019    8.0742 H       528      M_A    0.0000
   3701 H         138.8354   13.0787    9.6660 H       528      M_A    0.0000
   3702 H         141.0445   13.6367   10.1943 H       528      M_A    0.0000
   3703 H         141.2138   11.9157    9.8789 H       528      M_A    0.0000
   3704 C         143.1455   12.4989    8.6441 C.3     529      M_A    0.0000
   3705 C         144.3075   13.4674    8.4443 C.3     529      M_A    0.0000
   3706 O         144.6719   14.0744    9.6840 O.3     529      M_A    0.0000
   3707 H         143.1281   12.1079    9.6670 H       529      M_A    0.0000
   3708 H         143.2731   11.6474    7.9659 H       529      M_A    0.0000
   3709 H         145.1615   12.9465    7.9879 H       529      M_A    0.0000
   3710 H         144.0325   14.2732    7.7523 H       529      M_A    0.0000
   3711 C         144.9255   13.1046   10.6799 C.3     530      M_A    0.0000
   3712 C         145.7337   13.6733   11.8425 C.3     530      M_A    0.0000
   3713 O         144.8824   13.9557   12.9531 O.3     530      M_A    0.0000
   3714 H         143.9726   12.6903   11.0262 H       530      M_A    0.0000
   3715 H         145.4936   12.2886   10.2188 H       530      M_A    0.0000
   3716 H         146.5378   12.9774   12.1219 H       530      M_A    0.0000
   3717 H         146.2242   14.6124   11.5574 H       530      M_A    0.0000
   3718 C         145.6251   14.1332   14.1421 C.3     531      M_A    0.0000
   3719 C         146.3737   15.4626   14.1584 C.3     531      M_A    0.0000
   3720 O         145.4922   16.5292   14.5093 O.3     531      M_A    0.0000
   3721 H         144.9505   14.0488   15.0008 H       531      M_A    0.0000
   3722 H         146.3522   13.3159   14.2103 H       531      M_A    0.0000
   3723 H         147.2292   15.4080   14.8469 H       531      M_A    0.0000
   3724 H         146.7888   15.6916   13.1689 H       531      M_A    0.0000
   3725 C         145.4661   17.5285   13.5106 C.3     532      M_A    0.0000
   3726 C         145.1556   18.9072   14.0859 C.3     532      M_A    0.0000
   3727 O         145.9841   19.9000   13.4812 O.3     532      M_A    0.0000
   3728 H         146.4241   17.5283   12.9797 H       532      M_A    0.0000
   3729 H         144.6865   17.2622   12.7877 H       532      M_A    0.0000
   3730 H         144.0895   19.1419   13.9545 H       532      M_A    0.0000
   3731 H         145.3461   18.9338   15.1661 H       532      M_A    0.0000
   3732 C         145.8199   21.1589   14.1018 C.3     533      M_A    0.0000
   3733 C         146.5675   22.2651   13.3633 C.3     533      M_A    0.0000
   3734 O         145.8032   23.4708   13.3614 O.3     533      M_A    0.0000
   3735 H         144.7506   21.3847   14.1744 H       533      M_A    0.0000
   3736 H         146.2131   21.0853   15.1223 H       533      M_A    0.0000
   3737 H         147.5581   22.4203   13.8145 H       533      M_A    0.0000
   3738 H         146.7457   21.9875   12.3169 H       533      M_A    0.0000
   3739 C         145.6441   23.9843   14.6683 C.3     534      M_A    0.0000
   3740 C         146.1704   25.4110   14.7926 C.3     534      M_A    0.0000
   3741 O         145.1474   26.3520   14.4674 O.3     534      M_A    0.0000
   3742 H         144.5868   23.9272   14.9484 H       534      M_A    0.0000
   3743 H         146.2041   23.3387   15.3546 H       534      M_A    0.0000
   3744 H         146.5651   25.5831   15.8043 H       534      M_A    0.0000
   3745 H         147.0060   25.5827   14.1026 H       534      M_A    0.0000
   3746 C         145.6920   27.6091   14.1211 C.3     535      M_A    0.0000
   3747 C         144.7179   28.4510   13.3023 C.3     535      M_A    0.0000
   3748 O         144.1952   29.5202   14.0907 O.3     535      M_A    0.0000
   3749 H         145.9945   28.1316   15.0350 H       535      M_A    0.0000
   3750 H         146.5952   27.4327   13.5259 H       535      M_A    0.0000
   3751 H         145.2116   28.8276   12.3949 H       535      M_A    0.0000
   3752 H         143.8672   27.8473   12.9621 H       535      M_A    0.0000
   3753 C         142.9700   29.9951   13.5708 C.3     536      M_A    0.0000
   3754 C         142.5066   31.2709   14.2678 C.3     536      M_A    0.0000
   3755 O         142.9186   32.4219   13.5307 O.3     536      M_A    0.0000
   3756 H         143.0759   30.1503   12.4918 H       536      M_A    0.0000
   3757 H         142.2151   29.2149   13.7210 H       536      M_A    0.0000
   3758 H         141.4159   31.2535   14.4053 H       536      M_A    0.0000
   3759 H         142.9425   31.3503   15.2716 H       536      M_A    0.0000
   3760 C         143.2176   33.5051   14.3875 C.3     537      M_A    0.0000
   3761 C         144.3954   34.3312   13.8791 C.3     537      M_A    0.0000
   3762 O         144.1950   35.7159   14.1626 O.3     537      M_A    0.0000
   3763 H         142.3222   34.1246   14.5060 H       537      M_A    0.0000
   3764 H         143.4703   33.0960   15.3724 H       537      M_A    0.0000
   3765 H         145.3340   33.9647   14.3191 H       537      M_A    0.0000
   3766 H         144.5050   34.2310   12.7920 H       537      M_A    0.0000
   3767 C         144.7537   36.0745   15.4101 C.3     538      M_A    0.0000
   3768 C         144.7676   37.5857   15.6199 C.3     538      M_A    0.0000
   3769 O         143.6290   37.9964   16.3767 O.3     538      M_A    0.0000
   3770 H         144.1991   35.5697   16.2083 H       538      M_A    0.0000
   3771 H         145.7846   35.7033   15.4369 H       538      M_A    0.0000
   3772 H         145.7039   37.8926   16.1078 H       538      M_A    0.0000
   3773 H         144.7324   38.1157   14.6598 H       538      M_A    0.0000
   3774 C         143.7937   39.3021   16.8915 C.3     539      M_A    0.0000
   3775 C         142.8530   40.3037   16.2281 C.3     539      M_A    0.0000
   3776 O         142.3922   41.2633   17.1792 O.3     539      M_A    0.0000
   3777 H         143.6458   39.2797   17.9765 H       539      M_A    0.0000
   3778 H         144.8287   39.6101   16.7043 H       539      M_A    0.0000
   3779 H         143.3546   40.7908   15.3795 H       539      M_A    0.0000
   3780 H         141.9700   39.7995   15.8159 H       539      M_A    0.0000
   3781 C         143.2862   42.3520   17.2903 C.3     540      M_A    0.0000
   3782 C         143.8124   42.5200   18.7126 C.3     540      M_A    0.0000
   3783 O         145.1256   43.0797   18.6976 O.3     540      M_A    0.0000
   3784 H         144.1073   42.2141   16.5787 H       540      M_A    0.0000
   3785 H         142.7471   43.2616   17.0020 H       540      M_A    0.0000
   3786 H         143.1208   43.1385   19.3026 H       540      M_A    0.0000
   3787 H         143.8738   41.5519   19.2254 H       540      M_A    0.0000
   3788 C         145.4071   43.7705   19.8978 C.3     541      M_A    0.0000
   3789 C         146.3611   44.9406   19.6765 C.3     541      M_A    0.0000
   3790 O         145.7107   46.1781   19.9652 O.3     541      M_A    0.0000
   3791 H         144.4660   44.1071   20.3456 H       541      M_A    0.0000
   3792 H         145.8706   43.0619   20.5937 H       541      M_A    0.0000
   3793 H         147.2665   44.8128   20.2871 H       541      M_A    0.0000
   3794 H         146.6966   44.9816   18.6327 H       541      M_A    0.0000
   3795 C         145.1183   46.1641   21.2482 C.3     542      M_A    0.0000
   3796 C         145.0134   47.5634   21.8474 C.3     542      M_A    0.0000
   3797 O         143.6931   48.0807   21.6829 O.3     542      M_A    0.0000
   3798 H         144.1344   45.6876   21.1823 H       542      M_A    0.0000
   3799 H         145.7436   45.5447   21.9013 H       542      M_A    0.0000
   3800 H         145.3067   47.5454   22.9070 H       542      M_A    0.0000
   3801 H         145.7024   48.2567   21.3488 H       542      M_A    0.0000
   3802 C         143.6190   49.4397   22.0629 C.3     543      M_A    0.0000
   3803 C         144.3603   50.3497   21.0879 C.3     543      M_A    0.0000
   3804 O         144.4419   51.6774   21.6060 O.3     543      M_A    0.0000
   3805 H         142.5664   49.7291   22.1513 H       543      M_A    0.0000
   3806 H         144.0741   49.5375   23.0551 H       543      M_A    0.0000
   3807 H         145.3587   49.9423   20.8729 H       543      M_A    0.0000
   3808 H         143.8360   50.4042   20.1257 H       543      M_A    0.0000
   3809 C         145.5990   51.8534   22.3979 C.3     544      M_A    0.0000
   3810 C         146.6494   52.7100   21.6972 C.3     544      M_A    0.0000
   3811 O         147.2232   53.6451   22.6106 O.3     544      M_A    0.0000
   3812 H         145.3105   52.2900   23.3600 H       544      M_A    0.0000
   3813 H         146.0245   50.8633   22.5975 H       544      M_A    0.0000
   3814 H         147.4199   52.0701   21.2435 H       544      M_A    0.0000
   3815 H         146.2033   53.2846   20.8758 H       544      M_A    0.0000
   3816 C         148.0068   54.6102   21.9388 C.3     545      M_A    0.0000
   3817 C         147.9532   55.9720   22.6249 C.3     545      M_A    0.0000
   3818 O         149.1846   56.6715   22.4458 O.3     545      M_A    0.0000
   3819 H         149.0368   54.2454   21.8643 H       545      M_A    0.0000
   3820 H         147.6164   54.7111   20.9196 H       545      M_A    0.0000
   3821 H         147.1027   56.5556   22.2441 H       545      M_A    0.0000
   3822 H         147.7921   55.8616   23.7046 H       545      M_A    0.0000
   3823 C         149.0467   58.0460   22.7436 C.3     546      M_A    0.0000
   3824 C         148.3972   58.2761   24.1049 C.3     546      M_A    0.0000
   3825 O         148.2109   59.6717   24.3411 O.3     546      M_A    0.0000
   3826 H         150.0307   58.5239   22.6892 H       546      M_A    0.0000
   3827 H         148.4160   58.4970   21.9690 H       546      M_A    0.0000
   3828 H         147.4454   57.7293   24.1686 H       546      M_A    0.0000
   3829 H         149.0302   57.8879   24.9126 H       546      M_A    0.0000
   3830 C         147.5841   60.3029   23.2431 C.3     547      M_A    0.0000
   3831 C         146.0634   60.1981   23.3122 C.3     547      M_A    0.0000
   3832 O         145.4773   61.4943   23.4313 O.3     547      M_A    0.0000
   3833 H         147.9067   61.3486   23.2002 H       547      M_A    0.0000
   3834 H         147.9322   59.8108   22.3277 H       547      M_A    0.0000
   3835 H         145.6793   59.6651   22.4305 H       547      M_A    0.0000
   3836 H         145.7494   59.6140   24.1863 H       547      M_A    0.0000
   3837 C         144.1855   61.4276   24.0003 C.3     548      M_A    0.0000
   3838 C         143.7845   62.7388   24.6696 C.3     548      M_A    0.0000
   3839 O         142.3653   62.8208   24.7997 O.3     548      M_A    0.0000
   3840 H         143.4672   61.1444   23.2235 H       548      M_A    0.0000
   3841 H         144.1899   60.6317   24.7538 H       548      M_A    0.0000
   3842 H         144.2817   62.8343   25.6456 H       548      M_A    0.0000
   3843 H         144.1099   63.5999   24.0726 H       548      M_A    0.0000
   3844 C         141.9585   64.1042   25.2289 C.3     549      M_A    0.0000
   3845 C         141.2814   64.0646   26.5957 C.3     549      M_A    0.0000
   3846 O         141.9513   64.9311   27.5114 O.3     549      M_A    0.0000
   3847 H         142.8278   64.7703   25.2376 H       549      M_A    0.0000
   3848 H         141.2478   64.4963   24.4924 H       549      M_A    0.0000
   3849 H         140.2183   64.3285   26.5004 H       549      M_A    0.0000
   3850 H         141.3109   63.0529   27.0193 H       549      M_A    0.0000
   3851 C         141.5528   66.2756   27.3369 C.3     550      M_A    0.0000
   3852 C         142.1039   67.1844   28.4317 C.3     550      M_A    0.0000
   3853 O         142.1855   68.5324   27.9691 O.3     550      M_A    0.0000
   3854 H         141.8681   66.6159   26.3448 H       550      M_A    0.0000
   3855 H         140.4577   66.3090   27.3663 H       550      M_A    0.0000
   3856 H         141.4830   67.1088   29.3359 H       550      M_A    0.0000
   3857 H         143.1151   66.8762   28.7256 H       550      M_A    0.0000
   3858 C         141.6234   69.4339   28.9009 C.3     551      M_A    0.0000
   3859 C         142.3202   70.7912   28.8788 C.3     551      M_A    0.0000
   3860 O         141.3673   71.8452   29.0156 O.3     551      M_A    0.0000
   3861 H         140.5521   69.5362   28.6976 H       551      M_A    0.0000
   3862 H         141.7308   68.9964   29.9000 H       551      M_A    0.0000
   3863 H         143.0845   70.8382   29.6678 H       551      M_A    0.0000
   3864 H         142.8476   70.9463   27.9293 H       551      M_A    0.0000
   3865 C         141.9512   72.9998   29.5839 C.3     552      M_A    0.0000
   3866 C         143.3625   73.2469   29.0593 C.3     552      M_A    0.0000
   3867 O         143.5662   74.6370   28.8063 O.3     552      M_A    0.0000
   3868 H         141.3016   73.8604   29.3914 H       552      M_A    0.0000
   3869 H         141.9967   72.8550   30.6693 H       552      M_A    0.0000
   3870 H         144.1053   72.8568   29.7699 H       552      M_A    0.0000
   3871 H         143.5294   72.7133   28.1152 H       552      M_A    0.0000
   3872 C         143.3259   75.4137   29.9621 C.3     553      M_A    0.0000
   3873 C         144.5361   76.2594   30.3474 C.3     553      M_A    0.0000
   3874 O         144.4560   77.5513   29.7454 O.3     553      M_A    0.0000
   3875 H         142.4432   76.0400   29.7947 H       553      M_A    0.0000
   3876 H         143.0950   74.7290   30.7862 H       553      M_A    0.0000
   3877 H         144.6152   76.3323   31.4417 H       553      M_A    0.0000
   3878 H         145.4670   75.7930   30.0017 H       553      M_A    0.0000
   3879 C         145.2281   78.5002   30.4527 C.3     554      M_A    0.0000
   3880 C         145.2896   79.8431   29.7309 C.3     554      M_A    0.0000
   3881 O         144.3542   80.7599   30.2990 O.3     554      M_A    0.0000
   3882 H         144.8192   78.6125   31.4625 H       554      M_A    0.0000
   3883 H         146.2449   78.1027   30.5492 H       554      M_A    0.0000
   3884 H         146.3127   80.2446   29.7628 H       554      M_A    0.0000
   3885 H         145.0358   79.7303   28.6695 H       554      M_A    0.0000
   3886 C         144.8681   81.3653   31.4678 C.3     555      M_A    0.0000
   3887 C         144.6821   82.8797   31.4593 C.3     555      M_A    0.0000
   3888 O         143.3632   83.2243   31.8833 O.3     555      M_A    0.0000
   3889 H         144.3908   80.9133   32.3438 H       555      M_A    0.0000
   3890 H         145.9394   81.1400   31.5209 H       555      M_A    0.0000
   3891 H         145.4434   83.3592   32.0913 H       555      M_A    0.0000
   3892 H         144.8192   83.2864   30.4496 H       555      M_A    0.0000
   3893 C         143.2724   84.5909   32.2314 C.3     556      M_A    0.0000
   3894 C         142.5010   85.3981   31.1915 C.3     556      M_A    0.0000
   3895 O         141.3391   85.9867   31.7758 O.3     556      M_A    0.0000
   3896 H         142.8111   84.6777   33.2209 H       556      M_A    0.0000
   3897 H         144.2911   84.9884   32.3046 H       556      M_A    0.0000
   3898 H         143.1534   86.1612   30.7431 H       556      M_A    0.0000
   3899 H         142.1651   84.7570   30.3669 H       556      M_A    0.0000
   3900 C         140.2903   86.1038   30.8361 C.3     557      M_A    0.0000
   3901 C         139.3571   87.2669   31.1592 C.3     557      M_A    0.0000
   3902 O         139.8380   88.4737   30.5675 O.3     557      M_A    0.0000
   3903 H         140.7187   86.2075   29.8335 H       557      M_A    0.0000
   3904 H         139.7146   85.1713   30.8558 H       557      M_A    0.0000
   3905 H         138.3349   87.0374   30.8252 H       557      M_A    0.0000
   3906 H         139.2973   87.4331   32.2421 H       557      M_A    0.0000
   3907 C         139.3846   89.6117   31.2721 C.3     558      M_A    0.0000
   3908 C         140.5022   90.6230   31.5092 C.3     558      M_A    0.0000
   3909 O         140.0501   91.9457   31.2194 O.3     558      M_A    0.0000
   3910 H         138.5522   90.0640   30.7227 H       558      M_A    0.0000
   3911 H         138.9986   89.2761   32.2415 H       558      M_A    0.0000
   3912 H         140.8727   90.5443   32.5414 H       558      M_A    0.0000
   3913 H         141.3609   90.4192   30.8574 H       558      M_A    0.0000
   3914 C         140.7283   92.9072   32.0019 C.3     559      M_A    0.0000
   3915 C         142.1090   93.2340   31.4405 C.3     559      M_A    0.0000
   3916 O         142.3464   94.6410   31.4831 O.3     559      M_A    0.0000
   3917 H         140.1092   93.8075   32.0776 H       559      M_A    0.0000
   3918 H         140.8440   92.4986   33.0123 H       559      M_A    0.0000
   3919 H         142.8833   92.6810   31.9914 H       559      M_A    0.0000
   3920 H         142.1915   92.9185   30.3929 H       559      M_A    0.0000
   3921 C         143.2219   95.0492   30.4517 C.3     560      M_A    0.0000
   3922 C         143.8237   96.4254   30.7206 C.3     560      M_A    0.0000
   3923 O         145.2290   96.3212   30.9488 O.3     560      M_A    0.0000
   3924 H         144.0044   94.2932   30.3270 H       560      M_A    0.0000
   3925 H         142.6481   95.0893   29.5188 H       560      M_A    0.0000
   3926 H         143.6036   97.1056   29.8853 H       560      M_A    0.0000
   3927 H         143.3787   96.8807   31.6142 H       560      M_A    0.0000
   3928 C         145.6273   97.0751   32.0756 C.3     561      M_A    0.0000
   3929 C         146.1973   98.4353   31.6841 C.3     561      M_A    0.0000
   3930 O         145.3395   99.4850   32.1315 O.3     561      M_A    0.0000
   3931 H         144.7733   97.1844   32.7525 H       561      M_A    0.0000
   3932 H         146.3998   96.5063   32.6058 H       561      M_A    0.0000
   3933 H         147.2140   98.5508   32.0864 H       561      M_A    0.0000
   3934 H         146.2853   98.5250   30.5941 H       561      M_A    0.0000
   3935 C         146.0463  100.6982   32.2906 C.3     562      M_A    0.0000
   3936 C         145.1138  101.9053   32.3290 C.3     562      M_A    0.0000
   3937 O         145.3432  102.6777   33.5074 O.3     562      M_A    0.0000
   3938 H         146.6556  100.6403   33.1989 H       562      M_A    0.0000
   3939 H         146.7291  100.8045   31.4398 H       562      M_A    0.0000
   3940 H         145.2417  102.5127   31.4215 H       562      M_A    0.0000
   3941 H         144.0632  101.5894   32.3427 H       562      M_A    0.0000
   3942 C         145.0164  104.0377   33.3061 C.3     563      M_A    0.0000
   3943 C         145.6895  104.9475   34.3295 C.3     563      M_A    0.0000
   3944 O         146.5165  105.9102   33.6760 O.3     563      M_A    0.0000
   3945 H         145.2883  104.3231   32.2842 H       563      M_A    0.0000
   3946 H         143.9294  104.1407   33.4008 H       563      M_A    0.0000
   3947 H         144.9321  105.4339   34.9610 H       563      M_A    0.0000
   3948 H         146.3304  104.3696   35.0070 H       563      M_A    0.0000
   3949 C         147.6370  106.2512   34.4666 C.3     564      M_A    0.0000
   3950 C         148.3092  107.5342   33.9868 C.3     564      M_A    0.0000
   3951 O         147.7722  108.6664   34.6705 O.3     564      M_A    0.0000
   3952 H         147.3238  106.3364   35.5126 H       564      M_A    0.0000
   3953 H         148.3578  105.4279   34.4025 H       564      M_A    0.0000
   3954 H         149.3983  107.4653   34.1214 H       564      M_A    0.0000
   3955 H         148.1405  107.6881   32.9136 H       564      M_A    0.0000
   3956 C         147.7318  109.8046   33.8340 C.3     565      M_A    0.0000
   3957 C         147.9460  111.0984   34.6140 C.3     565      M_A    0.0000
   3958 O         148.7703  111.9985   33.8736 O.3     565      M_A    0.0000
   3959 H         148.4794  109.6923   33.0415 H       565      M_A    0.0000
   3960 H         146.7455  109.8373   33.3569 H       565      M_A    0.0000
   3961 H         146.9778  111.5559   34.8634 H       565      M_A    0.0000
   3962 H         148.4492  110.9022   35.5690 H       565      M_A    0.0000
   3963 C         149.1364  113.1215   34.6493 C.3     566      M_A    0.0000
   3964 C         150.1297  114.0227   33.9217 C.3     566      M_A    0.0000
   3965 O         149.7528  115.3931   34.0550 O.3     566      M_A    0.0000
   3966 H         148.2324  113.6735   34.9278 H       566      M_A    0.0000
   3967 H         149.5996  112.7564   35.5731 H       566      M_A    0.0000
   3968 H         151.1473  113.8491   34.3002 H       566      M_A    0.0000
   3969 H         150.1564  113.7922   32.8494 H       566      M_A    0.0000
   3970 C         149.1197  115.6371   35.2946 C.3     567      M_A    0.0000
   3971 C         149.7921  116.7658   36.0704 C.3     567      M_A    0.0000
   3972 O         149.2721  118.0316   35.6639 O.3     567      M_A    0.0000
   3973 H         148.0609  115.8547   35.1183 H       567      M_A    0.0000
   3974 H         149.1747  114.7172   35.8879 H       567      M_A    0.0000
   3975 H         149.6666  116.6105   37.1516 H       567      M_A    0.0000
   3976 H         150.8734  116.7800   35.8847 H       567      M_A    0.0000
   3977 C         149.6921  118.3680   34.3573 C.3     568      M_A    0.0000
   3978 C         148.7996  119.4306   33.7230 C.3     568      M_A    0.0000
   3979 O         149.2122  120.7364   34.1261 O.3     568      M_A    0.0000
   3980 H         150.7361  118.6974   34.3912 H       568      M_A    0.0000
   3981 H         149.6511  117.4593   33.7458 H       568      M_A    0.0000
   3982 H         148.8077  119.3288   32.6282 H       568      M_A    0.0000
   3983 H         147.7557  119.3046   34.0364 H       568      M_A    0.0000
   3984 C         148.3071  121.7256   33.6798 C.3     569      M_A    0.0000
   3985 C         146.9677  121.6481   34.4065 C.3     569      M_A    0.0000
   3986 O         146.8082  122.7640   35.2824 O.3     569      M_A    0.0000
   3987 H         148.7668  122.7121   33.8023 H       569      M_A    0.0000
   3988 H         148.1386  121.5693   32.6081 H       569      M_A    0.0000
   3989 H         146.1446  121.5892   33.6799 H       569      M_A    0.0000
   3990 H         146.9047  120.7391   35.0177 H       569      M_A    0.0000
   3991 C         146.0116  123.7726   34.6953 C.3     570      M_A    0.0000
   3992 C         145.3341  124.6515   35.7426 C.3     570      M_A    0.0000
   3993 O         145.6915  126.0207   35.5539 O.3     570      M_A    0.0000
   3994 H         146.6324  124.3703   34.0194 H       570      M_A    0.0000
   3995 H         145.2397  123.2830   34.0904 H       570      M_A    0.0000
   3996 H         144.2439  124.5141   35.7056 H       570      M_A    0.0000
   3997 H         145.6464  124.3671   36.7552 H       570      M_A    0.0000
   3998 C         144.6826  126.8887   36.0288 C.3     571      M_A    0.0000
   3999 C         144.8873  128.3231   35.5505 C.3     571      M_A    0.0000
   4000 O         143.6345  128.9270   35.2286 O.3     571      M_A    0.0000
   4001 H         143.7052  126.5042   35.7184 H       571      M_A    0.0000
   4002 H         144.7124  126.8726   37.1243 H       571      M_A    0.0000
   4003 H         145.4272  128.9037   36.3123 H       571      M_A    0.0000
   4004 H         145.5073  128.3504   34.6456 H       571      M_A    0.0000
   4005 C         142.9794  129.4068   36.3851 C.3     572      M_A    0.0000
   4006 C         141.9394  130.4734   36.0550 C.3     572      M_A    0.0000
   4007 O         140.6250  129.9172   36.0855 O.3     572      M_A    0.0000
   4008 H         142.5254  128.5626   36.9149 H       572      M_A    0.0000
   4009 H         143.7377  129.8433   37.0453 H       572      M_A    0.0000
   4010 H         142.0312  131.3208   36.7495 H       572      M_A    0.0000
   4011 H         142.1005  130.8807   35.0490 H       572      M_A    0.0000
   4012 C         139.6637  130.8351   35.6058 C.3     573      M_A    0.0000
   4013 C         138.2726  130.2148   35.5153 C.3     573      M_A    0.0000
   4014 O         137.2717  131.1822   35.8322 O.3     573      M_A    0.0000
   4015 H         139.6608  131.7198   36.2514 H       573      M_A    0.0000
   4016 H         139.9744  131.1562   34.6050 H       573      M_A    0.0000
   4017 H         138.1123  129.7864   34.5155 H       573      M_A    0.0000
   4018 H         138.1653  129.3861   36.2264 H       573      M_A    0.0000
   4019 C         136.0047  130.5795   36.0001 C.3     574      M_A    0.0000
   4020 C         134.9234  131.6010   36.3400 C.3     574      M_A    0.0000
   4021 O         134.3781  132.1678   35.1487 O.3     574      M_A    0.0000
   4022 H         135.7507  130.0224   35.0920 H       574      M_A    0.0000
   4023 H         136.0811  129.8576   36.8213 H       574      M_A    0.0000
   4024 H         134.1408  131.1347   36.9556 H       574      M_A    0.0000
   4025 H         135.3351  132.4245   36.9369 H       574      M_A    0.0000
   4026 C         135.3060  133.0213   34.5103 C.3     575      M_A    0.0000
   4027 C         134.7259  134.4086   34.2512 C.3     575      M_A    0.0000
   4028 O         135.0897  135.3070   35.2993 O.3     575      M_A    0.0000
   4029 H         136.2147  133.0802   35.1188 H       575      M_A    0.0000
   4030 H         135.5782  132.5660   33.5512 H       575      M_A    0.0000
   4031 H         135.0576  134.7817   33.2716 H       575      M_A    0.0000
   4032 H         133.6299  134.3750   34.2130 H       575      M_A    0.0000
   4033 C         134.1776  136.3816   35.3992 C.3     576      M_A    0.0000
   4034 C         132.8398  135.9462   35.9898 C.3     576      M_A    0.0000
   4035 O         132.2552  137.0091   36.7424 O.3     576      M_A    0.0000
   4036 H         134.6311  137.1811   35.9947 H       576      M_A    0.0000
   4037 H         134.0085  136.7750   34.3903 H       576      M_A    0.0000
   4038 H         132.1658  135.6039   35.1913 H       576      M_A    0.0000
   4039 H         132.9692  135.0948   36.6697 H       576      M_A    0.0000
   4040 C         132.2682  138.2230   36.0191 C.3     577      M_A    0.0000
   4041 C         132.2342  139.4398   36.9390 C.3     577      M_A    0.0000
   4042 O         133.2481  140.3746   36.5701 O.3     577      M_A    0.0000
   4043 H         133.1501  138.2428   35.3699 H       577      M_A    0.0000
   4044 H         131.3818  138.2408   35.3747 H       577      M_A    0.0000
   4045 H         131.2371  139.9028   36.9192 H       577      M_A    0.0000
   4046 H         132.4184  139.1496   37.9809 H       577      M_A    0.0000
   4047 C         132.7998  141.7071   36.7131 C.3     578      M_A    0.0000
   4048 C         133.7596  142.5493   37.5483 C.3     578      M_A    0.0000
   4049 O         133.8171  143.8855   37.0492 O.3     578      M_A    0.0000
   4050 H         132.6534  142.1434   35.7192 H       578      M_A    0.0000
   4051 H         131.8239  141.6827   37.2114 H       578      M_A    0.0000
   4052 H         133.4595  142.5300   38.6059 H       578      M_A    0.0000
   4053 H         134.7768  142.1400   37.5092 H       578      M_A    0.0000
   4054 C         133.0954  144.7773   37.8743 C.3     579      M_A    0.0000
   4055 C         132.9026  146.1402   37.2159 C.3     579      M_A    0.0000
   4056 O         131.6005  146.6527   37.4983 O.3     579      M_A    0.0000
   4057 H         132.1328  144.3241   38.1343 H       579      M_A    0.0000
   4058 H         133.6613  144.9094   38.8037 H       579      M_A    0.0000
   4059 H         133.6867  146.8361   37.5474 H       579      M_A    0.0000
   4060 H         132.9972  146.0663   36.1254 H       579      M_A    0.0000
   4061 C         131.2756  147.7353   36.6501 C.3     580      M_A    0.0000
   4062 C         130.2155  148.6461   37.2622 C.3     580      M_A    0.0000
   4063 O         130.8272  149.7640   37.9057 O.3     580      M_A    0.0000
   4064 H         132.1889  148.2929   36.4166 H       580      M_A    0.0000
   4065 H         130.8895  147.3233   35.7107 H       580      M_A    0.0000
   4066 H         129.5021  148.9700   36.4908 H       580      M_A    0.0000
   4067 H         129.6287  148.1118   38.0197 H       580      M_A    0.0000
   4068 C         129.9926  150.9036   37.8670 C.3     581      M_A    0.0000
   4069 C         129.8849  151.5829   39.2290 C.3     581      M_A    0.0000
   4070 O         130.3422  152.9331   39.1524 O.3     581      M_A    0.0000
   4071 H         130.3698  151.5972   37.1080 H       581      M_A    0.0000
   4072 H         128.9939  150.5794   37.5525 H       581      M_A    0.0000
   4073 H         128.8504  151.5315   39.5980 H       581      M_A    0.0000
   4074 H         130.5038  151.0682   39.9744 H       581      M_A    0.0000
   4075 C         129.8352  153.7121   40.2168 C.3     582      M_A    0.0000
   4076 C         129.9218  155.2074   39.9258 C.3     582      M_A    0.0000
   4077 O         128.6480  155.7144   39.5277 O.3     582      M_A    0.0000
   4078 H         128.8031  153.4084   40.4219 H       582      M_A    0.0000
   4079 H         130.4299  153.4897   41.1102 H       582      M_A    0.0000
   4080 H         130.3085  155.7432   40.8046 H       582      M_A    0.0000
   4081 H         130.6254  155.4082   39.1083 H       582      M_A    0.0000
   4082 C         128.6931  157.1091   39.3049 C.3     583      M_A    0.0000
   4083 C         127.5860  157.5764   38.3647 C.3     583      M_A    0.0000
   4084 O         126.6360  158.3762   39.0686 O.3     583      M_A    0.0000
   4085 H         128.6381  157.6268   40.2685 H       583      M_A    0.0000
   4086 H         129.6640  157.3474   38.8556 H       583      M_A    0.0000
   4087 H         128.0167  158.1234   37.5136 H       583      M_A    0.0000
   4088 H         127.0451  156.7217   37.9397 H       583      M_A    0.0000
   4089 C         125.7143  158.9821   38.1853 C.3     584      M_A    0.0000
   4090 C         124.3574  159.2158   38.8428 C.3     584      M_A    0.0000
   4091 O         124.2940  160.5252   39.4079 O.3     584      M_A    0.0000
   4092 H         126.1399  159.9200   37.8129 H       584      M_A    0.0000
   4093 H         125.5818  158.3142   37.3264 H       584      M_A    0.0000
   4094 H         123.5499  159.0551   38.1141 H       584      M_A    0.0000
   4095 H         124.1863  158.4987   39.6554 H       584      M_A    0.0000
   4096 C         122.9622  160.9007   39.6947 C.3     585      M_A    0.0000
   4097 C         122.7489  161.1691   41.1815 C.3     585      M_A    0.0000
   4098 O         121.3936  160.9101   41.5474 O.3     585      M_A    0.0000
   4099 H         122.7008  161.7779   39.0932 H       585      M_A    0.0000
   4100 H         122.3062  160.0791   39.3850 H       585      M_A    0.0000
   4101 H         123.4469  160.5661   41.7799 H       585      M_A    0.0000
   4102 H         122.9604  162.2177   41.4254 H       585      M_A    0.0000
   4103 C         121.0458  161.5728   42.7461 C.3     586      M_A    0.0000
   4104 C         122.1477  161.4747   43.7969 C.3     586      M_A    0.0000
   4105 O         122.8511  162.7125   43.9017 O.3     586      M_A    0.0000
   4106 H         120.8067  162.6175   42.5204 H       586      M_A    0.0000
   4107 H         120.1375  161.1026   43.1398 H       586      M_A    0.0000
   4108 H         121.7230  161.1730   44.7652 H       586      M_A    0.0000
   4109 H         122.8795  160.7029   43.5276 H       586      M_A    0.0000
   4110 C         122.1567  163.6346   44.7168 C.3     587      M_A    0.0000
   4111 C         123.0759  164.3119   45.7290 C.3     587      M_A    0.0000
   4112 O         122.5767  165.6046   46.0719 O.3     587      M_A    0.0000
   4113 H         121.6600  164.3728   44.0782 H       587      M_A    0.0000
   4114 H         121.3770  163.0860   45.2575 H       587      M_A    0.0000
   4115 H         123.1911  163.6784   46.6203 H       587      M_A    0.0000
   4116 H         124.0830  164.4477   45.3154 H       587      M_A    0.0000
   4117 C         121.1743  165.5885   46.2441 C.3     588      M_A    0.0000
   4118 C         120.6723  166.8254   46.9832 C.3     588      M_A    0.0000
   4119 O         119.3005  166.6695   47.3458 O.3     588      M_A    0.0000
   4120 H         120.6949  165.4920   45.2641 H       588      M_A    0.0000
   4121 H         120.9167  164.6976   46.8282 H       588      M_A    0.0000
   4122 H         121.2993  167.0210   47.8651 H       588      M_A    0.0000
   4123 H         120.7452  167.7180   46.3493 H       588      M_A    0.0000
   4124 C         118.4436  166.9333   46.2535 C.3     589      M_A    0.0000
   4125 C         117.5910  165.7222   45.8870 C.3     589      M_A    0.0000
   4126 O         116.2070  166.0713   45.8694 O.3     589      M_A    0.0000
   4127 H         117.8177  167.7999   46.4916 H       589      M_A    0.0000
   4128 H         119.0673  167.2013   45.3930 H       589      M_A    0.0000
   4129 H         117.9120  165.3110   44.9191 H       589      M_A    0.0000
   4130 H         117.7173  164.9165   46.6211 H       589      M_A    0.0000
   4131 C         115.8641  166.7673   44.6883 C.3     590      M_A    0.0000
   4132 C         114.4264  167.2776   44.7195 C.3     590      M_A    0.0000
   4133 O         114.3812  168.6167   45.2121 O.3     590      M_A    0.0000
   4134 H         116.5722  167.5895   44.5397 H       590      M_A    0.0000
   4135 H         115.9769  166.0763   43.8451 H       590      M_A    0.0000
   4136 H         113.9759  167.2041   43.7192 H       590      M_A    0.0000
   4137 H         113.8058  166.6624   45.3828 H       590      M_A    0.0000
   4138 C         113.3160  168.7970   46.1230 C.3     591      M_A    0.0000
   4139 C         113.4885  170.0570   46.9660 C.3     591      M_A    0.0000
   4140 O         112.4807  171.0158   46.6449 O.3     591      M_A    0.0000
   4141 H         112.3716  168.8184   45.5687 H       591      M_A    0.0000
   4142 H         113.2902  167.9262   46.7880 H       591      M_A    0.0000
   4143 H         113.4726  169.8031   48.0356 H       591      M_A    0.0000
   4144 H         114.4615  170.5268   46.7753 H       591      M_A    0.0000
   4145 C         112.9697  172.3370   46.7558 C.3     592      M_A    0.0000
   4146 C         111.9627  173.3662   46.2510 C.3     592      M_A    0.0000
   4147 O         111.6763  174.3266   47.2676 O.3     592      M_A    0.0000
   4148 H         113.2436  172.5303   47.7985 H       592      M_A    0.0000
   4149 H         113.8830  172.4099   46.1543 H       592      M_A    0.0000
   4150 H         112.3398  173.8501   45.3385 H       592      M_A    0.0000
   4151 H         111.0152  172.8862   45.9761 H       592      M_A    0.0000
   4152 C         110.2913  174.3939   47.5400 C.3     593      M_A    0.0000
   4153 C         109.6450  175.6324   46.9264 C.3     593      M_A    0.0000
   4154 O         108.5404  175.2636   46.1008 O.3     593      M_A    0.0000
   4155 H         109.8113  173.4778   47.1796 H       593      M_A    0.0000
   4156 H         110.1632  174.4293   48.6280 H       593      M_A    0.0000
   4157 H         109.3372  176.3312   47.7175 H       593      M_A    0.0000
   4158 H         110.3593  176.1763   46.2957 H       593      M_A    0.0000
   4159 C         107.9290  174.0737   46.5561 C.3     594      M_A    0.0000
   4160 C         106.4078  174.1345   46.4543 C.3     594      M_A    0.0000
   4161 O         105.8816  172.8678   46.0587 O.3     594      M_A    0.0000
   4162 H         108.3296  173.2265   45.9892 H       594      M_A    0.0000
   4163 H         108.2087  173.9316   47.6063 H       594      M_A    0.0000
   4164 H         105.9765  174.4658   47.4099 H       594      M_A    0.0000
   4165 H         106.0937  174.8699   45.7031 H       594      M_A    0.0000
   4166 C         104.6120  172.6330   46.6328 C.3     595      M_A    0.0000
   4167 C         103.7087  173.8599   46.5501 C.3     595      M_A    0.0000
   4168 O         102.3733  173.4771   46.2214 O.3     595      M_A    0.0000
   4169 H         104.1516  171.7694   46.1411 H       595      M_A    0.0000
   4170 H         104.7616  172.3733   47.6870 H       595      M_A    0.0000
   4171 H         103.7427  174.4207   47.4952 H       595      M_A    0.0000
   4172 H         104.0540  174.5498   45.7700 H       595      M_A    0.0000
   4173 C         101.5560  173.4113   47.3723 C.3     596      M_A    0.0000
   4174 C         101.3193  174.7874   47.9877 C.3     596      M_A    0.0000
   4175 O         100.0843  175.3358   47.5273 O.3     596      M_A    0.0000
   4176 H         100.6091  172.9270   47.1110 H       596      M_A    0.0000
   4177 H         102.0612  172.7758   48.1086 H       596      M_A    0.0000
   4178 H         101.3432  174.7215   49.0850 H       596      M_A    0.0000
   4179 H         102.1155  175.4867   47.7036 H       596      M_A    0.0000
   4180 C          99.6648  176.4161   48.3359 C.3     597      M_A    0.0000
   4181 C          98.7404  177.3700   47.5851 C.3     597      M_A    0.0000
   4182 O          97.4303  177.3469   48.1515 O.3     597      M_A    0.0000
   4183 H          99.1799  176.0220   49.2354 H       597      M_A    0.0000
   4184 H         100.5581  176.9654   48.6545 H       597      M_A    0.0000
   4185 H          99.1598  178.3864   47.5889 H       597      M_A    0.0000
   4186 H          98.6479  177.0789   46.5313 H       597      M_A    0.0000
   4187 C          96.4534  177.7469   47.2120 C.3     598      M_A    0.0000
   4188 C          95.0436  177.6984   47.7937 C.3     598      M_A    0.0000
   4189 O          94.5996  179.0102   48.1396 O.3     598      M_A    0.0000
   4190 H          96.6969  178.7510   46.8489 H       598      M_A    0.0000
   4191 H          96.5080  177.0630   46.3573 H       598      M_A    0.0000
   4192 H          94.3561  177.2180   47.0827 H       598      M_A    0.0000
   4193 H          95.0164  177.0909   48.7069 H       598      M_A    0.0000
   4194 C          93.3765  178.9727   48.8464 C.3     599      M_A    0.0000
   4195 C          92.8905  180.3679   49.2275 C.3     599      M_A    0.0000
   4196 O          91.7734  180.7458   48.4230 O.3     599      M_A    0.0000
   4197 H          92.6305  178.4456   48.2420 H       599      M_A    0.0000
   4198 H          93.5337  178.3898   49.7612 H       599      M_A    0.0000
   4199 H          92.6428  180.4042   50.2981 H       599      M_A    0.0000
   4200 H          93.6779  181.1151   49.0680 H       599      M_A    0.0000
   4201 C          91.5653  182.1432   48.4508 C.3     600      M_A    0.0000
   4202 C          92.6315  182.8983   47.6627 C.3     600      M_A    0.0000
   4203 O          92.0675  184.0485   47.0326 O.3     600      M_A    0.0000
   4204 H          90.5623  182.3628   48.0695 H       600      M_A    0.0000
   4205 H          91.6007  182.4685   49.4968 H       600      M_A    0.0000
   4206 H          93.4674  183.1731   48.3221 H       600      M_A    0.0000
   4207 H          93.0569  182.2666   46.8730 H       600      M_A    0.0000
   4208 C          92.6124  185.2434   47.5542 C.3     601      M_A    0.0000
   4209 C          92.0184  186.4827   46.8913 C.3     601      M_A    0.0000
   4210 O          92.2127  187.6325   47.7147 O.3     601      M_A    0.0000
   4211 H          92.4585  185.2629   48.6384 H       601      M_A    0.0000
   4212 H          93.6933  185.2281   47.3732 H       601      M_A    0.0000
   4213 H          92.4574  186.6265   45.8935 H       601      M_A    0.0000
   4214 H          90.9381  186.3666   46.7387 H       601      M_A    0.0000
   4215 C          93.5614  188.0542   47.7043 C.3     602      M_A    0.0000
   4216 C          93.7031  189.5336   48.0500 C.3     602      M_A    0.0000
   4217 O          95.0784  189.8802   48.2121 O.3     602      M_A    0.0000
   4218 H          94.1364  187.4297   48.3964 H       602      M_A    0.0000
   4219 H          93.9594  187.8857   46.6971 H       602      M_A    0.0000
   4220 H          93.2234  190.1514   47.2773 H       602      M_A    0.0000
   4221 H          93.1921  189.7672   48.9924 H       602      M_A    0.0000
   4222 C          95.7037  190.1121   46.9662 C.3     603      M_A    0.0000
   4223 C          95.1681  191.3649   46.2795 C.3     603      M_A    0.0000
   4224 O          96.2305  192.0880   45.6579 O.3     603      M_A    0.0000
   4225 H          96.7867  190.1759   47.1163 H       603      M_A    0.0000
   4226 H          95.5085  189.2452   46.3247 H       603      M_A    0.0000
   4227 H          94.3888  191.0953   45.5521 H       603      M_A    0.0000
   4228 H          94.6932  192.0376   47.0046 H       603      M_A    0.0000
   4229 C          95.7916  193.3434   45.1802 C.3     604      M_A    0.0000
   4230 C          96.1887  193.5748   43.7252 C.3     604      M_A    0.0000
   4231 O          95.2041  194.3636   43.0572 O.3     604      M_A    0.0000
   4232 H          94.7066  193.4158   45.3102 H       604      M_A    0.0000
   4233 H          96.2524  194.1201   45.8013 H       604      M_A    0.0000
   4234 H          97.1810  194.0455   43.6729 H       604      M_A    0.0000
   4235 H          96.2699  192.6237   43.1844 H       604      M_A    0.0000
   4236 C          95.4669  195.7451   43.1958 C.3     605      M_A    0.0000
   4237 C          94.6046  196.5900   42.2627 C.3     605      M_A    0.0000
   4238 O          94.2505  197.8233   42.8883 O.3     605      M_A    0.0000
   4239 H          95.3178  196.0341   44.2416 H       605      M_A    0.0000
   4240 H          96.5223  195.9134   42.9527 H       605      M_A    0.0000
   4241 H          95.1292  196.7603   41.3115 H       605      M_A    0.0000
   4242 H          93.6720  196.0695   42.0112 H       605      M_A    0.0000
   4243 C          93.9835  198.8299   41.9331 C.3     606      M_A    0.0000
   4244 C          94.2416  200.2286   42.4855 C.3     606      M_A    0.0000
   4245 O          95.0961  200.9631   41.6090 O.3     606      M_A    0.0000
   4246 H          94.5852  198.6413   41.0376 H       606      M_A    0.0000
   4247 H          92.9286  198.7510   41.6462 H       606      M_A    0.0000
   4248 H          93.2895  200.7538   42.6486 H       606      M_A    0.0000
   4249 H          94.7377  200.1793   43.4628 H       606      M_A    0.0000
   4250 C          95.7556  202.0120   42.2885 C.3     607      M_A    0.0000
   4251 C          95.5822  203.3528   41.5810 C.3     607      M_A    0.0000
   4252 O          95.2902  204.3828   42.5252 O.3     607      M_A    0.0000
   4253 H          95.3866  202.0580   43.3187 H       607      M_A    0.0000
   4254 H          96.8233  201.7682   42.3294 H       607      M_A    0.0000
   4255 H          96.4810  203.5912   40.9943 H       607      M_A    0.0000
   4256 H          94.7495  203.3154   40.8676 H       607      M_A    0.0000
   4257 C          96.3662  204.5860   43.4184 C.3     608      M_A    0.0000
   4258 C          96.5971  206.0654   43.7120 C.3     608      M_A    0.0000
   4259 O          96.0036  206.4268   44.9590 O.3     608      M_A    0.0000
   4260 H          96.1768  204.0250   44.3397 H       608      M_A    0.0000
   4261 H          97.2698  204.1708   42.9574 H       608      M_A    0.0000
   4262 H          97.6732  206.2911   43.7011 H       608      M_A    0.0000
   4263 H          96.1425  206.6951   42.9370 H       608      M_A    0.0000
   4264 C          96.4295  207.7056   45.3833 C.3     609      M_A    0.0000
   4265 C          95.6228  208.8249   44.7318 C.3     609      M_A    0.0000
   4266 O          95.7588  210.0369   45.4737 O.3     609      M_A    0.0000
   4267 H          96.3684  207.7584   46.4755 H       609      M_A    0.0000
   4268 H          97.4833  207.8195   45.1044 H       609      M_A    0.0000
   4269 H          95.9352  208.9589   43.6862 H       609      M_A    0.0000
   4270 H          94.5549  208.5745   44.7046 H       609      M_A    0.0000
   4271 C          97.0356  210.6145   45.2912 C.3     610      M_A    0.0000
   4272 C          97.9059  210.4892   46.5382 C.3     610      M_A    0.0000
   4273 O          99.2657  210.2469   46.1772 O.3     610      M_A    0.0000
   4274 H          97.5174  210.1497   44.4245 H       610      M_A    0.0000
   4275 H          96.8951  211.6771   45.0622 H       610      M_A    0.0000
   4276 H          97.8117  211.3917   47.1590 H       610      M_A    0.0000
   4277 H          97.5775  209.6495   47.1634 H       610      M_A    0.0000
   4278 C          99.9721  211.4551   45.9821 C.3     611      M_A    0.0000
   4279 C         101.4786  211.2712   46.1394 C.3     611      M_A    0.0000
   4280 O         102.1811  212.0361   45.1600 O.3     611      M_A    0.0000
   4281 H          99.7241  211.8587   44.9946 H       611      M_A    0.0000
   4282 H          99.6226  212.1746   46.7315 H       611      M_A    0.0000
   4283 H         101.7898  211.5434   47.1582 H       611      M_A    0.0000
   4284 H         101.7623  210.2204   46.0010 H       611      M_A    0.0000
   4285 C         103.3218  212.6611   45.7125 C.3     612      M_A    0.0000
   4286 C         104.6067  212.2379   45.0068 C.3     612      M_A    0.0000
   4287 O         105.2595  213.3709   44.4340 O.3     612      M_A    0.0000
   4288 H         103.1884  213.7474   45.6730 H       612      M_A    0.0000
   4289 H         103.3857  212.3732   46.7681 H       612      M_A    0.0000
   4290 H         105.2676  211.7076   45.7075 H       612      M_A    0.0000
   4291 H         104.3938  211.5347   44.1920 H       612      M_A    0.0000
   4292 C         106.6526  213.3388   44.6690 C.3     613      M_A    0.0000
   4293 C         107.4558  213.5047   43.3824 C.3     613      M_A    0.0000
   4294 O         108.5939  214.3368   43.6066 O.3     613      M_A    0.0000
   4295 H         106.9099  214.1142   45.3984 H       613      M_A    0.0000
   4296 H         106.8965  212.3686   45.1167 H       613      M_A    0.0000
   4297 H         107.7509  212.5210   42.9897 H       613      M_A    0.0000
   4298 H         106.8506  213.9797   42.6002 H       613      M_A    0.0000
   4299 C         109.7113  213.8965   42.8621 C.3     614      M_A    0.0000
   4300 C         110.8059  214.9570   42.7881 C.3     614      M_A    0.0000
   4301 O         111.9617  214.5347   43.5117 O.3     614      M_A    0.0000
   4302 H         110.0900  212.9676   43.3016 H       614      M_A    0.0000
   4303 H         109.3702  213.6675   41.8460 H       614      M_A    0.0000
   4304 H         111.0497  215.1781   41.7389 H       614      M_A    0.0000
   4305 H         110.4677  215.9018   43.2315 H       614      M_A    0.0000
   4306 C         113.0886  215.3259   43.1938 C.3     615      M_A    0.0000
   4307 C         113.5355  216.1877   44.3710 C.3     615      M_A    0.0000
   4308 O         114.9378  216.0409   44.5947 O.3     615      M_A    0.0000
   4309 H         113.8987  214.6729   42.8519 H       615      M_A    0.0000
   4310 H         112.8157  215.9808   42.3584 H       615      M_A    0.0000
   4311 H         113.2665  217.2392   44.1953 H       615      M_A    0.0000
   4312 H         113.0226  215.8885   45.2936 H       615      M_A    0.0000
   4313 C         115.6921  216.7397   43.6254 C.3     616      M_A    0.0000
   4314 C         116.2763  218.0365   44.1778 C.3     616      M_A    0.0000
   4315 O         117.6967  217.9408   44.2827 O.3     616      M_A    0.0000
   4316 H         116.4803  216.0820   43.2438 H       616      M_A    0.0000
   4317 H         115.0261  216.9790   42.7884 H       616      M_A    0.0000
   4318 H         115.9783  218.8861   43.5467 H       616      M_A    0.0000
   4319 H         115.8862  218.2466   45.1815 H       616      M_A    0.0000
   4320 C         118.2776  219.1903   44.5959 C.3     617      M_A    0.0000
   4321 C         119.7971  219.1055   44.7064 C.3     617      M_A    0.0000
   4322 O         120.3949  220.3527   44.3528 O.3     617      M_A    0.0000
   4323 H         117.9765  219.9238   43.8404 H       617      M_A    0.0000
   4324 H         117.8700  219.5196   45.5586 H       617      M_A    0.0000
   4325 H         120.0872  218.7965   45.7209 H       617      M_A    0.0000
   4326 H         120.1983  218.3442   44.0259 H       617      M_A    0.0000
   4327 C         120.3680  221.2638   45.4326 C.3     618      M_A    0.0000
   4328 C         120.5464  222.7070   44.9707 C.3     618      M_A    0.0000
   4329 O         119.7619  223.5898   45.7726 O.3     618      M_A    0.0000
   4330 H         119.4295  221.1380   45.9830 H       618      M_A    0.0000
   4331 H         121.1881  221.0051   46.1122 H       618      M_A    0.0000
   4332 H         121.6102  222.9843   44.9943 H       618      M_A    0.0000
   4333 H         120.2191  222.8297   43.9307 H       618      M_A    0.0000
   4334 C         120.5684  224.3355   46.6616 C.3     619      M_A    0.0000
   4335 C         119.7372  225.2174   47.5886 C.3     619      M_A    0.0000
   4336 O         120.0057  224.9005   48.9544 O.3     619      M_A    0.0000
   4337 H         121.2011  223.6476   47.2326 H       619      M_A    0.0000
   4338 H         121.2286  224.9736   46.0630 H       619      M_A    0.0000
   4339 H         119.9324  226.2788   47.3785 H       619      M_A    0.0000
   4340 H         118.6642  225.0622   47.4202 H       619      M_A    0.0000
   4341 C         119.3696  225.8086   49.8307 C.3     620      M_A    0.0000
   4342 C         119.3506  225.3005   51.2693 C.3     620      M_A    0.0000
   4343 O         120.3451  225.9656   52.0481 O.3     620      M_A    0.0000
   4344 H         119.8686  226.7811   49.7614 H       620      M_A    0.0000
   4345 H         118.3370  225.9407   49.4877 H       620      M_A    0.0000
   4346 H         118.3492  225.4302   51.7044 H       620      M_A    0.0000
   4347 H         119.5669  224.2256   51.3089 H       620      M_A    0.0000
   4348 C         120.4625  225.3935   53.3349 C.3     621      M_A    0.0000
   4349 C         121.9181  225.2544   53.7708 C.3     621      M_A    0.0000
   4350 O         122.0830  225.7043   55.1155 O.3     621      M_A    0.0000
   4351 H         119.8923  225.9982   54.0482 H       621      M_A    0.0000
   4352 H         120.0049  224.3980   53.3041 H       621      M_A    0.0000
   4353 H         122.2514  224.2132   53.6538 H       621      M_A    0.0000
   4354 H         122.5772  225.8618   53.1380 H       621      M_A    0.0000
   4355 C         123.0652  224.9503   55.7964 C.3     622      M_A    0.0000
   4356 C         124.3066  225.7785   56.1144 C.3     622      M_A    0.0000
   4357 O         124.4576  225.9324   57.5256 O.3     622      M_A    0.0000
   4358 H         122.6257  224.5310   56.7077 H       622      M_A    0.0000
   4359 H         123.3537  224.1123   55.1516 H       622      M_A    0.0000
   4360 H         125.1970  225.3156   55.6651 H       622      M_A    0.0000
   4361 H         124.2298  226.7834   55.6808 H       622      M_A    0.0000
   4362 C         125.8146  226.0923   57.8862 C.3     623      M_A    0.0000
   4363 C         126.3241  227.5005   57.5941 C.3     623      M_A    0.0000
   4364 O         126.8125  228.1136   58.7872 O.3     623      M_A    0.0000
   4365 H         125.9350  225.8400   58.9451 H       623      M_A    0.0000
   4366 H         126.4045  225.3741   57.3052 H       623      M_A    0.0000
   4367 H         127.0988  227.4697   56.8144 H       623      M_A    0.0000
   4368 H         125.5195  228.1361   57.2038 H       623      M_A    0.0000
   4369 C         127.6200  229.2367   58.4984 C.3     624      M_A    0.0000
   4370 C         127.0115  230.5324   59.0267 C.3     624      M_A    0.0000
   4371 O         128.0130  231.3397   59.6457 O.3     624      M_A    0.0000
   4372 H         128.6210  229.0729   58.9115 H       624      M_A    0.0000
   4373 H         127.7188  229.3096   57.4093 H       624      M_A    0.0000
   4374 H         126.5075  231.0742   58.2134 H       624      M_A    0.0000
   4375 H         126.2429  230.3258   59.7819 H       624      M_A    0.0000
   4376 C         127.4489  232.4744   60.2712 C.3     625      M_A    0.0000
   4377 C         126.6235  232.1022   61.4993 C.3     625      M_A    0.0000
   4378 O         126.6163  233.1749   62.4412 O.3     625      M_A    0.0000
   4379 H         128.2501  233.1746   60.5307 H       625      M_A    0.0000
   4380 H         126.7973  232.9713   59.5433 H       625      M_A    0.0000
   4381 H         125.6022  231.8255   61.2005 H       625      M_A    0.0000
   4382 H         127.0453  231.2243   62.0045 H       625      M_A    0.0000
   4383 C         125.3420  233.7798   62.5264 C.3     626      M_A    0.0000
   4384 C         125.2875  234.8538   63.6088 C.3     626      M_A    0.0000
   4385 O         124.4759  235.9495   63.1863 O.3     626      M_A    0.0000
   4386 H         125.0757  234.1916   61.5471 H       626      M_A    0.0000
   4387 H         124.6129  232.9973   62.7663 H       626      M_A    0.0000
   4388 H         124.9197  234.4240   64.5517 H       626      M_A    0.0000
   4389 H         126.2889  235.2491   63.8204 H       626      M_A    0.0000
   4390 C         124.5256  237.0169   64.1110 C.3     627      M_A    0.0000
   4391 C         123.2512  237.8556   64.0889 C.3     627      M_A    0.0000
   4392 O         122.9454  238.3359   65.3980 O.3     627      M_A    0.0000
   4393 H         124.7166  236.6143   65.1115 H       627      M_A    0.0000
   4394 H         125.3751  237.6555   63.8431 H       627      M_A    0.0000
   4395 H         123.3543  238.6837   63.3731 H       627      M_A    0.0000
   4396 H         122.3949  237.2596   63.7493 H       627      M_A    0.0000
   4397 C         122.2740  239.5784   65.3493 C.3     628      M_A    0.0000
   4398 C         120.7728  239.4293   65.5779 C.3     628      M_A    0.0000
   4399 O         120.3076  240.4112   66.5038 O.3     628      M_A    0.0000
   4400 H         122.7208  240.2550   66.0856 H       628      M_A    0.0000
   4401 H         122.4401  240.0125   64.3567 H       628      M_A    0.0000
   4402 H         120.2349  239.4951   64.6213 H       628      M_A    0.0000
   4403 H         120.5357  238.4437   65.9976 H       628      M_A    0.0000
   4404 C         118.9287  240.2573   66.7716 C.3     629      M_A    0.0000
   4405 C         118.3200  241.5130   67.3887 C.3     629      M_A    0.0000
   4406 O         117.4420  241.1689   68.4604 O.3     629      M_A    0.0000
   4407 H         118.4132  239.9824   65.8451 H       629      M_A    0.0000
   4408 H         118.8128  239.4247   67.4749 H       629      M_A    0.0000
   4409 H         119.1149  242.1938   67.7259 H       629      M_A    0.0000
   4410 H         117.7319  242.0690   66.6479 H       629      M_A    0.0000
   4411 C         118.0960  240.3765   69.4306 C.3     630      M_A    0.0000
   4412 C         118.3180  241.1344   70.7362 C.3     630      M_A    0.0000
   4413 O         118.0313  240.2968   71.8561 O.3     630      M_A    0.0000
   4414 H         117.5145  239.4635   69.5975 H       630      M_A    0.0000
   4415 H         119.0693  240.0797   69.0231 H       630      M_A    0.0000
   4416 H         119.3458  241.5224   70.7798 H       630      M_A    0.0000
   4417 H         117.6562  242.0071   70.8009 H       630      M_A    0.0000
   4418 C         118.9081  240.5559   72.9336 C.3     631      M_A    0.0000
   4419 C         118.2040  240.4557   74.2836 C.3     631      M_A    0.0000
   4420 O         118.8523  239.4941   75.1160 O.3     631      M_A    0.0000
   4421 H         119.7564  239.8655   72.8780 H       631      M_A    0.0000
   4422 H         119.2996  241.5724   72.8125 H       631      M_A    0.0000
   4423 H         118.1672  241.4427   74.7666 H       631      M_A    0.0000
   4424 H         117.1623  240.1341   74.1601 H       631      M_A    0.0000
   4425 C         117.9737  238.9845   76.0985 C.3     632      M_A    0.0000
   4426 C         118.3670  239.4263   77.5050 C.3     632      M_A    0.0000
   4427 O         117.4128  240.3528   78.0237 O.3     632      M_A    0.0000
   4428 H         116.9509  239.2940   75.8584 H       632      M_A    0.0000
   4429 H         118.0095  237.8902   76.0476 H       632      M_A    0.0000
   4430 H         118.4725  238.5510   78.1621 H       632      M_A    0.0000
   4431 H         119.3429  239.9276   77.5006 H       632      M_A    0.0000
   4432 C         116.1163  240.0940   77.5247 C.3     633      M_A    0.0000
   4433 C         115.1849  241.2900   77.6984 C.3     633      M_A    0.0000
   4434 O         114.8576  241.8577   76.4302 O.3     633      M_A    0.0000
   4435 H         116.1906  239.8003   76.4722 H       633      M_A    0.0000
   4436 H         115.7061  239.2417   78.0784 H       633      M_A    0.0000
   4437 H         114.2808  240.9902   78.2476 H       633      M_A    0.0000
   4438 H         115.6625  242.0759   78.2967 H       633      M_A    0.0000
   4439 C         114.9760  243.2658   76.4478 C.3     634      M_A    0.0000
   4440 C         113.6288  243.9527   76.6511 C.3     634      M_A    0.0000
   4441 O         113.7193  244.9370   77.6810 O.3     634      M_A    0.0000
   4442 H         115.6887  243.5547   77.2275 H       634      M_A    0.0000
   4443 H         115.3929  243.5810   75.4844 H       634      M_A    0.0000
   4444 H         113.2813  244.3938   75.7058 H       634      M_A    0.0000
   4445 H         112.8612  243.2297   76.9542 H       634      M_A    0.0000
   4446 C         114.9555  245.6201   77.6364 C.3     635      M_A    0.0000
   4447 C         114.8741  246.9976   78.2876 C.3     635      M_A    0.0000
   4448 O         115.3139  246.9367   79.6443 O.3     635      M_A    0.0000
   4449 H         115.7229  245.0018   78.1142 H       635      M_A    0.0000
   4450 H         115.2356  245.7415   76.5838 H       635      M_A    0.0000
   4451 H         115.4607  247.7260   77.7094 H       635      M_A    0.0000
   4452 H         113.8416  247.3687   78.2934 H       635      M_A    0.0000
   4453 C         115.5238  248.2280   80.1785 C.3     636      M_A    0.0000
   4454 C         114.2991  249.1232   80.0145 C.3     636      M_A    0.0000
   4455 O         113.5286  249.1421   81.2161 O.3     636      M_A    0.0000
   4456 H         115.8087  248.1369   81.2321 H       636      M_A    0.0000
   4457 H         116.3676  248.6804   79.6449 H       636      M_A    0.0000
   4458 H         114.6067  250.1371   79.7208 H       636      M_A    0.0000
   4459 H         113.6477  248.7543   79.2124 H       636      M_A    0.0000
   4460 C         113.6414  247.9232   81.9221 C.3     637      M_A    0.0000
   4461 C         112.4757  247.7058   82.8823 C.3     637      M_A    0.0000
   4462 O         111.4000  247.0399   82.2210 O.3     637      M_A    0.0000
   4463 H         113.7207  247.1002   81.2039 H       637      M_A    0.0000
   4464 H         114.5739  247.9521   82.4974 H       637      M_A    0.0000
   4465 H         112.8114  247.1436   83.7656 H       637      M_A    0.0000
   4466 H         112.0901  248.6631   83.2547 H       637      M_A    0.0000
   4467 C         110.1458  247.4978   82.6836 C.3     638      M_A    0.0000
   4468 C         109.4536  248.4009   81.6670 C.3     638      M_A    0.0000
   4469 O         108.0910  248.6157   82.0344 O.3     638      M_A    0.0000
   4470 H         109.5208  246.6343   82.9353 H       638      M_A    0.0000
   4471 H         110.3136  248.0656   83.6059 H       638      M_A    0.0000
   4472 H         109.9970  249.3520   81.5724 H       638      M_A    0.0000
   4473 H         109.4568  247.9438   80.6696 H       638      M_A    0.0000
   4474 C         107.8487  249.9709   82.3530 C.3     639      M_A    0.0000
   4475 C         106.7199  250.1293   83.3674 C.3     639      M_A    0.0000
   4476 O         106.8527  251.3617   84.0756 O.3     639      M_A    0.0000
   4477 H         108.7763  250.4231   82.7200 H       639      M_A    0.0000
   4478 H         107.5701  250.4898   81.4287 H       639      M_A    0.0000
   4479 H         105.7449  250.0605   82.8639 H       639      M_A    0.0000
   4480 H         106.7418  249.3206   84.1085 H       639      M_A    0.0000
   4481 C         105.9303  251.4470   85.1427 C.3     640      M_A    0.0000
   4482 C         104.9839  252.6340   84.9900 C.3     640      M_A    0.0000
   4483 O         103.6584  252.1843   84.7092 O.3     640      M_A    0.0000
   4484 H         105.3755  250.5052   85.2115 H       640      M_A    0.0000
   4485 H         106.4998  251.5648   86.0718 H       640      M_A    0.0000
   4486 H         105.0109  253.2596   85.8938 H       640      M_A    0.0000
   4487 H         105.2947  253.2796   84.1591 H       640      M_A    0.0000
   4488 C         103.1088  251.4791   85.8035 C.3     641      M_A    0.0000
   4489 C         101.6860  251.9297   86.1207 C.3     641      M_A    0.0000
   4490 O         100.7400  251.1580   85.3808 O.3     641      M_A    0.0000
   4491 H         103.1454  250.4052   85.5913 H       641      M_A    0.0000
   4492 H         103.7431  251.6659   86.6777 H       641      M_A    0.0000
   4493 H         101.4987  251.8622   87.2021 H       641      M_A    0.0000
   4494 H         101.5372  252.9818   85.8474 H       641      M_A    0.0000
   4495 C          99.5388  250.9806   86.1037 C.3     642      M_A    0.0000
   4496 C          98.3650  251.7075   85.4541 C.3     642      M_A    0.0000
   4497 O          97.3441  250.7802   85.0856 O.3     642      M_A    0.0000
   4498 H          99.3351  249.9089   86.2009 H       642      M_A    0.0000
   4499 H          99.6901  251.3820   87.1123 H       642      M_A    0.0000
   4500 H          97.9765  252.4818   86.1312 H       642      M_A    0.0000
   4501 H          98.6818  252.2273   84.5413 H       642      M_A    0.0000
   4502 C          96.6621  251.1979   83.9205 C.3     643      M_A    0.0000
   4503 C          95.1585  250.9574   84.0182 C.3     643      M_A    0.0000
   4504 O          94.4780  252.1691   84.3444 O.3     643      M_A    0.0000
   4505 H          96.8823  252.2550   83.7372 H       643      M_A    0.0000
   4506 H          97.0586  250.6251   83.0744 H       643      M_A    0.0000
   4507 H          94.7813  250.5272   83.0792 H       643      M_A    0.0000
   4508 H          94.9278  250.2288   84.8054 H       643      M_A    0.0000
   4509 C          94.2725  252.9713   83.1993 C.3     644      M_A    0.0000
   4510 C          92.8574  253.5392   83.1426 C.3     644      M_A    0.0000
   4511 O          92.7560  254.7117   83.9506 O.3     644      M_A    0.0000
   4512 H          95.0204  253.7712   83.1845 H       644      M_A    0.0000
   4513 H          94.4390  252.3454   82.3151 H       644      M_A    0.0000
   4514 H          92.5728  253.7457   82.1008 H       644      M_A    0.0000
   4515 H          92.1277  252.8137   83.5234 H       644      M_A    0.0000
   4516 C          91.8634  254.5208   85.0294 C.3     645      M_A    0.0000
   4517 C          91.1561  255.8136   85.4251 C.3     645      M_A    0.0000
   4518 O          89.7400  255.6557   85.3393 O.3     645      M_A    0.0000
   4519 H          91.1420  253.7411   84.7626 H       645      M_A    0.0000
   4520 H          92.4428  254.1571   85.8858 H       645      M_A    0.0000
   4521 H          91.4638  256.1206   86.4351 H       645      M_A    0.0000
   4522 H          91.4363  256.6354   84.7545 H       645      M_A    0.0000
   4523 C          89.0801  256.9052   85.3257 C.3     646      M_A    0.0000
   4524 C          87.6069  256.7726   84.9515 C.3     646      M_A    0.0000
   4525 O          86.8181  257.7107   85.6833 O.3     646      M_A    0.0000
   4526 H          89.1979  257.3822   86.3046 H       646      M_A    0.0000
   4527 H          89.5782  257.5413   84.5851 H       646      M_A    0.0000
   4528 H          87.4777  256.9013   83.8672 H       646      M_A    0.0000
   4529 H          87.2301  255.7701   85.1897 H       646      M_A    0.0000
   4530 C          86.6848  258.9313   84.9838 C.3     647      M_A    0.0000
   4531 C          85.6611  259.8570   85.6343 C.3     647      M_A    0.0000
   4532 O          86.1725  261.1870   85.7204 O.3     647      M_A    0.0000
   4533 H          87.6660  259.4129   84.9153 H       647      M_A    0.0000
   4534 H          86.3567  258.7009   83.9637 H       647      M_A    0.0000
   4535 H          84.7143  259.8279   85.0760 H       647      M_A    0.0000
   4536 H          85.4272  259.5283   86.6547 H       647      M_A    0.0000
   4537 C          85.6243  262.0178   84.7174 C.3     648      M_A    0.0000
   4538 C          85.7271  263.4970   85.0775 C.3     648      M_A    0.0000
   4539 O          86.5185  264.1927   84.1143 O.3     648      M_A    0.0000
   4540 H          86.1241  261.8069   83.7660 H       648      M_A    0.0000
   4541 H          84.5669  261.7537   84.6019 H       648      M_A    0.0000
   4542 H          84.7233  263.9373   85.1634 H       648      M_A    0.0000
   4543 H          86.2069  263.6306   86.0551 H       648      M_A    0.0000
   4544 C          86.6849  265.5513   84.4658 C.3     649      M_A    0.0000
   4545 C          86.0685  266.4909   83.4337 C.3     649      M_A    0.0000
   4546 O          85.4310  267.5936   84.0785 O.3     649      M_A    0.0000
   4547 H          86.2552  265.7186   85.4592 H       649      M_A    0.0000
   4548 H          87.7602  265.7531   84.5315 H       649      M_A    0.0000
   4549 H          86.8364  266.8319   82.7245 H       649      M_A    0.0000
   4550 H          85.3064  265.9737   82.8375 H       649      M_A    0.0000
   4551 C          85.7145  268.8117   83.4206 C.3     650      M_A    0.0000
   4552 C          84.6815  269.8892   83.7372 C.3     650      M_A    0.0000
   4553 O          85.2568  270.9097   84.5530 O.3     650      M_A    0.0000
   4554 H          86.7234  269.1390   83.6935 H       650      M_A    0.0000
   4555 H          85.7085  268.6211   82.3413 H       650      M_A    0.0000
   4556 H          84.2701  270.3057   82.8065 H       650      M_A    0.0000
   4557 H          83.8315  269.4681   84.2885 H       650      M_A    0.0000
   4558 C          84.2772  271.8198   85.0103 C.3     651      M_A    0.0000
   4559 C          83.3403  271.1877   86.0353 C.3     651      M_A    0.0000
   4560 O          82.6563  272.1973   86.7776 O.3     651      M_A    0.0000
   4561 H          84.7754  272.7038   85.4223 H       651      M_A    0.0000
   4562 H          83.6886  272.1444   84.1446 H       651      M_A    0.0000
   4563 H          82.6328  270.5103   85.5359 H       651      M_A    0.0000
   4564 H          83.8997  270.5746   86.7529 H       651      M_A    0.0000
   4565 C          82.3788  273.3287   85.9778 C.3     652      M_A    0.0000
   4566 C          81.0878  274.0256   86.3972 C.3     652      M_A    0.0000
   4567 O          81.3385  275.3946   86.7149 O.3     652      M_A    0.0000
   4568 H          83.2309  274.0153   86.0220 H       652      M_A    0.0000
   4569 H          82.2785  272.9912   84.9399 H       652      M_A    0.0000
   4570 H          80.3310  273.9310   85.6053 H       652      M_A    0.0000
   4571 H          80.6596  273.5541   87.2906 H       652      M_A    0.0000
   4572 C          81.5335  276.1688   85.5490 C.3     653      M_A    0.0000
   4573 C          80.7400  277.4715   85.5855 C.3     653      M_A    0.0000
   4574 O          81.5160  278.5139   86.1764 O.3     653      M_A    0.0000
   4575 H          82.6042  276.3616   85.4230 H       653      M_A    0.0000
   4576 H          81.2004  275.5747   84.6903 H       653      M_A    0.0000
   4577 H          80.4103  277.7436   84.5725 H       653      M_A    0.0000
   4578 H          79.8288  277.3594   86.1863 H       653      M_A    0.0000
   4579 C          81.0845  279.7883   85.7444 C.3     654      M_A    0.0000
   4580 C          79.9106  280.3072   86.5696 C.3     654      M_A    0.0000
   4581 O          80.1827  281.6216   87.0555 O.3     654      M_A    0.0000
   4582 H          81.9304  280.4830   85.7800 H       654      M_A    0.0000
   4583 H          80.7710  279.7010   84.6978 H       654      M_A    0.0000
   4584 H          78.9876  280.2847   85.9725 H       654      M_A    0.0000
   4585 H          79.7294  279.6657   87.4411 H       654      M_A    0.0000
   4586 C          79.5972  281.8357   88.3236 C.3     655      M_A    0.0000
   4587 C          78.8585  283.1688   88.3973 C.3     655      M_A    0.0000
   4588 O          77.4469  282.9621   88.3494 O.3     655      M_A    0.0000
   4589 H          78.9282  280.9998   88.5541 H       655      M_A    0.0000
   4590 H          80.3998  281.8334   89.0700 H       655      M_A    0.0000
   4591 H          79.1520  283.7156   89.3050 H       655      M_A    0.0000
   4592 H          79.1252  283.8127   87.5500 H       655      M_A    0.0000
   4593 C          76.7621  284.1477   87.9998 C.3     656      M_A    0.0000
   4594 C          75.2793  283.8988   87.7396 C.3     656      M_A    0.0000
   4595 O          74.4776  284.7425   88.5663 O.3     656      M_A    0.0000
   4596 H          76.9052  284.8900   88.7922 H       656      M_A    0.0000
   4597 H          77.2204  284.5449   87.0869 H       656      M_A    0.0000
   4598 H          75.0505  284.0484   86.6746 H       656      M_A    0.0000
   4599 H          75.0092  282.8606   87.9699 H       656      M_A    0.0000
   4600 C          73.1435  284.8024   88.1044 C.3     657      M_A    0.0000
   4601 C          72.1700  284.1385   89.0739 C.3     657      M_A    0.0000
   4602 O          71.0833  285.0153   89.3708 O.3     657      M_A    0.0000
   4603 H          72.8732  285.8488   87.9275 H       657      M_A    0.0000
   4604 H          73.0964  284.2805   87.1418 H       657      M_A    0.0000
   4605 H          71.8126  283.1849   88.6593 H       657      M_A    0.0000
   4606 H          72.6649  283.8958   90.0226 H       657      M_A    0.0000
   4607 C          70.0028  284.3193   89.9582 C.3     658      M_A    0.0000
   4608 C          69.7356  284.7761   91.3893 C.3     658      M_A    0.0000
   4609 O          68.7263  285.7854   91.4123 O.3     658      M_A    0.0000
   4610 H          69.1138  284.4443   89.3309 H       658      M_A    0.0000
   4611 H          70.2544  283.2525   89.9677 H       658      M_A    0.0000
   4612 H          69.4565  283.9170   92.0161 H       658      M_A    0.0000
   4613 H          70.6395  285.2051   91.8396 H       658      M_A    0.0000
   4614 C          68.7832  286.5466   92.6016 C.3     659      M_A    0.0000
   4615 C          67.6052  287.5085   92.7244 C.3     659      M_A    0.0000
   4616 O          67.0422  287.4456   94.0348 O.3     659      M_A    0.0000
   4617 H          68.8295  285.8669   93.4591 H       659      M_A    0.0000
   4618 H          69.7137  287.1256   92.5869 H       659      M_A    0.0000
   4619 H          67.9225  288.5311   92.4742 H       659      M_A    0.0000
   4620 H          66.8111  287.2497   92.0129 H       659      M_A    0.0000
   4621 C          66.2073  288.5562   94.2928 C.3     660      M_A    0.0000
   4622 C          64.7714  288.1372   94.5938 C.3     660      M_A    0.0000
   4623 O          64.4904  288.2779   95.9864 O.3     660      M_A    0.0000
   4624 H          66.6309  289.1374   95.1188 H       660      M_A    0.0000
   4625 H          66.2110  289.1947   93.4020 H       660      M_A    0.0000
   4626 H          64.0692  288.7229   93.9832 H       660      M_A    0.0000
   4627 H          64.6058  287.0852   94.3300 H       660      M_A    0.0000
   4628 C          65.1782  287.3104   96.7530 C.3     661      M_A    0.0000
   4629 C          64.2243  286.4235   97.5478 C.3     661      M_A    0.0000
   4630 O          64.1666  285.1153   96.9795 O.3     661      M_A    0.0000
   4631 H          65.8125  286.7133   96.0892 H       661      M_A    0.0000
   4632 H          65.8358  287.8397   97.4522 H       661      M_A    0.0000
   4633 H          64.5300  286.3878   98.6034 H       661      M_A    0.0000
   4634 H          63.2062  286.8322   97.5356 H       661      M_A    0.0000
   4635 C          63.7145  285.1523   95.6412 C.3     662      M_A    0.0000
   4636 C          64.7581  284.6128   94.6675 C.3     662      M_A    0.0000
   4637 O          64.4161  283.2917   94.2486 O.3     662      M_A    0.0000
   4638 H          62.7763  284.5923   95.5654 H       662      M_A    0.0000
   4639 H          63.4988  286.1964   95.3871 H       662      M_A    0.0000
   4640 H          64.8615  285.2907   93.8081 H       662      M_A    0.0000
   4641 H          65.7469  284.5618   95.1404 H       662      M_A    0.0000
   4642 C          65.5636  282.5498   93.8886 C.3     663      M_A    0.0000
   4643 C          65.2104  281.2938   93.0975 C.3     663      M_A    0.0000
   4644 O          65.2519  281.5573   91.6952 O.3     663      M_A    0.0000
   4645 H          66.2435  283.1954   93.3225 H       663      M_A    0.0000
   4646 H          66.0774  282.2552   94.8108 H       663      M_A    0.0000
   4647 H          65.8870  280.4709   93.3699 H       663      M_A    0.0000
   4648 H          64.1962  280.9509   93.3375 H       663      M_A    0.0000
   4649 C          65.2106  280.3619   90.9428 C.3     664      M_A    0.0000
   4650 C          63.8375  279.6986   90.9936 C.3     664      M_A    0.0000
   4651 O          63.6368  278.8748   89.8452 O.3     664      M_A    0.0000
   4652 H          65.5070  280.5787   89.9110 H       664      M_A    0.0000
   4653 H          65.9527  279.6735   91.3631 H       664      M_A    0.0000
   4654 H          63.7288  279.1219   91.9234 H       664      M_A    0.0000
   4655 H          63.0384  280.4504   91.0022 H       664      M_A    0.0000
   4656 C          64.7913  278.1177   89.5437 C.3     665      M_A    0.0000
   4657 C          65.0013  276.9732   90.5307 C.3     665      M_A    0.0000
   4658 O          65.7617  275.9259   89.9282 O.3     665      M_A    0.0000
   4659 H          64.7161  277.7451   88.5166 H       665      M_A    0.0000
   4660 H          65.6563  278.7892   89.5902 H       665      M_A    0.0000
   4661 H          65.4864  277.3445   91.4448 H       665      M_A    0.0000
   4662 H          64.0414  276.5438   90.8439 H       665      M_A    0.0000
   4663 C          66.6894  276.4337   88.9909 C.3     666      M_A    0.0000
   4664 C          68.0392  275.7278   89.0789 C.3     666      M_A    0.0000
   4665 O          68.1231  274.6853   88.1073 O.3     666      M_A    0.0000
   4666 H          66.2639  276.3492   87.9853 H       666      M_A    0.0000
   4667 H          66.8323  277.4997   89.2019 H       666      M_A    0.0000
   4668 H          68.8559  276.4540   88.9578 H       666      M_A    0.0000
   4669 H          68.1788  275.2691   90.0658 H       666      M_A    0.0000
   4670 C          68.5603  273.4727   88.6863 C.3     667      M_A    0.0000
   4671 C          68.4558  272.3015   87.7138 C.3     667      M_A    0.0000
   4672 O          69.6669  271.5458   87.7084 O.3     667      M_A    0.0000
   4673 H          69.5875  273.5980   89.0452 H       667      M_A    0.0000
   4674 H          67.9275  273.2678   89.5574 H       667      M_A    0.0000
   4675 H          67.5922  271.6712   87.9703 H       667      M_A    0.0000
   4676 H          68.2851  272.6559   86.6895 H       667      M_A    0.0000
   4677 C          69.4824  270.2775   87.1132 C.3     668      M_A    0.0000
   4678 C          70.6969  269.8441   86.2975 C.3     668      M_A    0.0000
   4679 O          71.3564  268.7455   86.9269 O.3     668      M_A    0.0000
   4680 H          69.2498  269.5464   87.8947 H       668      M_A    0.0000
   4681 H          68.6131  270.3404   86.4487 H       668      M_A    0.0000
   4682 H          70.3946  269.5938   85.2705 H       668      M_A    0.0000
   4683 H          71.4253  270.6603   86.2139 H       668      M_A    0.0000
   4684 C          71.8590  267.8298   85.9752 C.3     669      M_A    0.0000
   4685 C          73.2993  268.1437   85.5813 C.3     669      M_A    0.0000
   4686 O          74.1461  267.0259   85.8482 O.3     669      M_A    0.0000
   4687 H          71.7710  266.8142   86.3753 H       669      M_A    0.0000
   4688 H          71.2261  267.8903   85.0824 H       669      M_A    0.0000
   4689 H          73.3477  268.4385   84.5232 H       669      M_A    0.0000
   4690 H          73.6870  268.9942   86.1561 H       669      M_A    0.0000
   4691 C          73.5862  265.8244   85.3584 C.3     670      M_A    0.0000
   4692 C          74.6099  264.6942   85.3045 C.3     670      M_A    0.0000
   4693 O          74.0079  263.4554   85.6798 O.3     670      M_A    0.0000
   4694 H          72.7275  265.5506   85.9806 H       670      M_A    0.0000
   4695 H          73.2142  266.0145   84.3452 H       670      M_A    0.0000
   4696 H          75.0563  264.6341   84.3014 H       670      M_A    0.0000
   4697 H          75.4380  264.8810   85.9996 H       670      M_A    0.0000
   4698 C          74.3368  262.4243   84.7713 C.3     671      M_A    0.0000
   4699 C          75.7373  261.8698   85.0146 C.3     671      M_A    0.0000
   4700 O          75.8583  260.5575   84.4657 O.3     671      M_A    0.0000
   4701 H          73.5815  261.6341   84.8389 H       671      M_A    0.0000
   4702 H          74.2913  262.8405   83.7583 H       671      M_A    0.0000
   4703 H          76.4928  262.5498   84.5954 H       671      M_A    0.0000
   4704 H          75.9498  261.7975   86.0886 H       671      M_A    0.0000
   4705 C          77.0025  259.8929   84.9618 C.3     672      M_A    0.0000
   4706 C          77.7665  259.1649   83.8599 C.3     672      M_A    0.0000
   4707 O          79.0541  258.7616   84.3260 O.3     672      M_A    0.0000
   4708 H          77.6433  260.6185   85.4740 H       672      M_A    0.0000
   4709 H          76.6703  259.1604   85.7064 H       672      M_A    0.0000
   4710 H          77.1844  258.3047   83.4991 H       672      M_A    0.0000
   4711 H          77.9211  259.8180   82.9919 H       672      M_A    0.0000
   4712 C          79.8970  258.3852   83.2561 C.3     673      M_A    0.0000
   4713 C          80.2679  256.9061   83.3104 C.3     673      M_A    0.0000
   4714 O          79.4381  256.1494   82.4292 O.3     673      M_A    0.0000
   4715 H          79.4061  258.6351   82.3095 H       673      M_A    0.0000
   4716 H          80.8132  258.9831   83.3225 H       673      M_A    0.0000
   4717 H          81.3326  256.7728   83.0700 H       673      M_A    0.0000
   4718 H          80.1274  256.5030   84.3211 H       673      M_A    0.0000
   4719 C          79.9724  254.8627   82.1931 C.3     674      M_A    0.0000
   4720 C          79.2735  253.7896   83.0227 C.3     674      M_A    0.0000
   4721 O          79.4569  252.5026   82.4330 O.3     674      M_A    0.0000
   4722 H          79.9075  254.6396   81.1229 H       674      M_A    0.0000
   4723 H          81.0344  254.8840   82.4634 H       674      M_A    0.0000
   4724 H          79.6417  253.8110   84.0586 H       674      M_A    0.0000
   4725 H          78.1935  253.9758   83.0758 H       674      M_A    0.0000
   4726 C          80.8086  252.2805   82.0860 C.3     675      M_A    0.0000
   4727 C          81.1575  250.7954   82.0573 C.3     675      M_A    0.0000
   4728 O          82.1528  250.5341   81.0678 O.3     675      M_A    0.0000
   4729 H          81.0116  252.7530   81.1190 H       675      M_A    0.0000
   4730 H          81.4350  252.7775   82.8357 H       675      M_A    0.0000
   4731 H          81.4863  250.4635   83.0526 H       675      M_A    0.0000
   4732 H          80.2775  250.1902   81.8059 H       675      M_A    0.0000
   4733 C          83.3805  251.1538   81.3929 C.3     676      M_A    0.0000
   4734 C          83.9563  250.6332   82.7065 C.3     676      M_A    0.0000
   4735 O          84.7759  249.4877   82.4745 O.3     676      M_A    0.0000
   4736 H          84.0846  251.0071   80.5669 H       676      M_A    0.0000
   4737 H          83.1998  252.2308   81.4871 H       676      M_A    0.0000
   4738 H          84.5171  251.4293   83.2170 H       676      M_A    0.0000
   4739 H          83.1561  250.3309   83.3935 H       676      M_A    0.0000
   4740 C          84.2658  248.6907   81.4250 C.3     677      M_A    0.0000
   4741 C          84.2760  247.2055   81.7748 C.3     677      M_A    0.0000
   4742 O          83.2038  246.5293   81.1182 O.3     677      M_A    0.0000
   4743 H          83.2550  249.0313   81.1765 H       677      M_A    0.0000
   4744 H          84.8960  248.8515   80.5428 H       677      M_A    0.0000
   4745 H          85.2476  246.7611   81.5152 H       677      M_A    0.0000
   4746 H          84.1471  247.0555   82.8540 H       677      M_A    0.0000
   4747 C          82.8333  245.3538   81.8094 C.3     678      M_A    0.0000
   4748 C          83.1854  244.0923   81.0265 C.3     678      M_A    0.0000
   4749 O          84.2609  243.3963   81.6563 O.3     678      M_A    0.0000
   4750 H          83.3106  245.3534   82.7951 H       678      M_A    0.0000
   4751 H          81.7489  245.3827   81.9662 H       678      M_A    0.0000
   4752 H          82.2991  243.4498   80.9237 H       678      M_A    0.0000
   4753 H          83.5065  244.3398   80.0070 H       678      M_A    0.0000
   4754 C          84.3682  242.0702   81.1800 C.3     679      M_A    0.0000
   4755 C          85.8113  241.5746   81.1814 C.3     679      M_A    0.0000
   4756 O          85.8828  240.2436   81.6924 O.3     679      M_A    0.0000
   4757 H          83.7265  241.4204   81.7845 H       679      M_A    0.0000
   4758 H          83.9871  242.0493   80.1526 H       679      M_A    0.0000
   4759 H          86.2351  241.6375   80.1688 H       679      M_A    0.0000
   4760 H          86.4425  242.2057   81.8193 H       679      M_A    0.0000
   4761 C          86.9244  239.5101   81.0809 C.3     680      M_A    0.0000
   4762 C          86.8963  238.0361   81.4742 C.3     680      M_A    0.0000
   4763 O          86.4561  237.2340   80.3784 O.3     680      M_A    0.0000
   4764 H          86.8563  239.6307   79.9944 H       680      M_A    0.0000
   4765 H          87.8773  239.9450   81.4035 H       680      M_A    0.0000
   4766 H          87.8876  237.7190   81.8290 H       680      M_A    0.0000
   4767 H          86.2020  237.8650   82.3063 H       680      M_A    0.0000
   4768 C          86.0552  235.9484   80.8067 C.3     681      M_A    0.0000
   4769 C          86.5094  234.8550   79.8442 C.3     681      M_A    0.0000
   4770 O          87.2082  233.8279   80.5474 O.3     681      M_A    0.0000
   4771 H          86.4411  235.7716   81.8163 H       681      M_A    0.0000
   4772 H          84.9607  235.9383   80.8637 H       681      M_A    0.0000
   4773 H          85.6467  234.4490   79.2967 H       681      M_A    0.0000
   4774 H          87.1931  235.2581   79.0866 H       681      M_A    0.0000
   4775 C          87.0528  232.5723   79.9178 C.3     682      M_A    0.0000
   4776 C          88.3503  232.0858   79.2791 C.3     682      M_A    0.0000
   4777 O          89.1760  231.4432   80.2503 O.3     682      M_A    0.0000
   4778 H          86.6773  231.8495   80.6499 H       682      M_A    0.0000
   4779 H          86.2913  232.6790   79.1367 H       682      M_A    0.0000
   4780 H          88.1301  231.4159   78.4354 H       682      M_A    0.0000
   4781 H          88.9227  232.9251   78.8648 H       682      M_A    0.0000
   4782 C          90.1929  230.6762   79.6385 C.3     683      M_A    0.0000
   4783 C          91.4984  231.4549   79.5061 C.3     683      M_A    0.0000
   4784 O          92.4560  230.9921   80.4583 O.3     683      M_A    0.0000
   4785 H          90.3389  229.7543   80.2115 H       683      M_A    0.0000
   4786 H          89.8459  230.3932   78.6381 H       683      M_A    0.0000
   4787 H          91.8848  231.3762   78.4797 H       683      M_A    0.0000
   4788 H          91.3386  232.5240   79.6939 H       683      M_A    0.0000
   4789 C          93.7576  231.4437   80.1441 C.3     684      M_A    0.0000
   4790 C          94.7782  231.0347   81.2021 C.3     684      M_A    0.0000
   4791 O          95.8998  230.3941   80.5942 O.3     684      M_A    0.0000
   4792 H          94.0388  231.0642   79.1560 H       684      M_A    0.0000
   4793 H          93.7292  232.5377   80.0832 H       684      M_A    0.0000
   4794 H          95.0880  231.9111   81.7894 H       684      M_A    0.0000
   4795 H          94.3412  230.3247   81.9154 H       684      M_A    0.0000
   4796 C          96.4806  231.2069   79.5947 C.3     685      M_A    0.0000
   4797 C          98.0052  231.1809   79.6478 C.3     685      M_A    0.0000
   4798 O          98.5196  230.1799   78.7696 O.3     685      M_A    0.0000
   4799 H          96.1136  230.8848   78.6144 H       685      M_A    0.0000
   4800 H          96.1377  232.2354   79.7554 H       685      M_A    0.0000
   4801 H          98.4104  232.1735   79.4037 H       685      M_A    0.0000
   4802 H          98.3589  230.9440   80.6590 H       685      M_A    0.0000
   4803 C          99.7823  229.7137   79.1999 C.3     686      M_A    0.0000
   4804 C         100.2065  228.4450   78.4660 C.3     686      M_A    0.0000
   4805 O         101.2721  228.7245   77.5582 O.3     686      M_A    0.0000
   4806 H         100.5212  230.5116   79.0695 H       686      M_A    0.0000
   4807 H          99.7142  229.4971   80.2721 H       686      M_A    0.0000
   4808 H         100.4903  227.6658   79.1880 H       686      M_A    0.0000
   4809 H          99.3751  228.0338   77.8800 H       686      M_A    0.0000
   4810 C         101.5312  227.6241   76.7102 C.3     687      M_A    0.0000
   4811 C         100.2775  227.1569   75.9767 C.3     687      M_A    0.0000
   4812 O         100.5795  226.0541   75.1219 O.3     687      M_A    0.0000
   4813 H         102.3239  227.8954   76.0049 H       687      M_A    0.0000
   4814 H         101.9063  226.8018   77.3302 H       687      M_A    0.0000
   4815 H          99.4893  226.8991   76.6986 H       687      M_A    0.0000
   4816 H          99.8692  227.9578   75.3477 H       687      M_A    0.0000
   4817 C         101.2221  225.0127   75.8287 C.3     688      M_A    0.0000
   4818 C         100.2837  223.8415   76.1040 C.3     688      M_A    0.0000
   4819 O         100.7583  222.6583   75.4615 O.3     688      M_A    0.0000
   4820 H         102.1035  224.6891   75.2650 H       688      M_A    0.0000
   4821 H         101.5711  225.4196   76.7847 H       688      M_A    0.0000
   4822 H         100.1724  223.6909   77.1874 H       688      M_A    0.0000
   4823 H          99.2777  224.0449   75.7162 H       688      M_A    0.0000
   4824 C          99.8155  221.6092   75.5478 C.3     689      M_A    0.0000
   4825 C         100.2496  220.3805   74.7542 C.3     689      M_A    0.0000
   4826 O         100.5754  219.3053   75.6348 O.3     689      M_A    0.0000
   4827 H          99.6521  221.3615   76.6020 H       689      M_A    0.0000
   4828 H          98.8655  221.9758   75.1424 H       689      M_A    0.0000
   4829 H          99.4626  220.0905   74.0431 H       689      M_A    0.0000
   4830 H         101.1426  220.5959   74.1543 H       689      M_A    0.0000
   4831 C          99.4171  218.6184   76.0632 C.3     690      M_A    0.0000
   4832 C          99.1825  217.3372   75.2685 C.3     690      M_A    0.0000
   4833 O         100.0567  216.3021   75.7182 O.3     690      M_A    0.0000
   4834 H          99.5016  218.4090   77.1349 H       690      M_A    0.0000
   4835 H          98.5586  219.2851   75.9225 H       690      M_A    0.0000
   4836 H          98.1290  217.0315   75.3436 H       690      M_A    0.0000
   4837 H          99.3820  217.4951   74.2012 H       690      M_A    0.0000
   4838 C         100.8024  215.7545   74.6500 C.3     691      M_A    0.0000
   4839 C         102.0945  215.0990   75.1286 C.3     691      M_A    0.0000
   4840 O         102.2155  213.7814   74.5926 O.3     691      M_A    0.0000
   4841 H         100.1752  215.0408   74.1053 H       691      M_A    0.0000
   4842 H         101.0524  216.5694   73.9610 H       691      M_A    0.0000
   4843 H         102.9590  215.7219   74.8576 H       691      M_A    0.0000
   4844 H         102.1086  215.0114   76.2221 H       691      M_A    0.0000
   4845 C         102.8599  212.9110   75.5004 C.3     692      M_A    0.0000
   4846 C         102.9526  211.4862   74.9622 C.3     692      M_A    0.0000
   4847 O         104.2006  211.2815   74.3002 O.3     692      M_A    0.0000
   4848 H         103.8524  213.3103   75.7350 H       692      M_A    0.0000
   4849 H         102.2782  212.9020   76.4292 H       692      M_A    0.0000
   4850 H         102.8089  210.7625   75.7774 H       692      M_A    0.0000
   4851 H         102.1574  211.2899   74.2321 H       692      M_A    0.0000
   4852 C         104.6186  209.9346   74.3894 C.3     693      M_A    0.0000
   4853 C         104.6203  209.2426   73.0295 C.3     693      M_A    0.0000
   4854 O         105.9576  209.0328   72.5763 O.3     693      M_A    0.0000
   4855 H         105.6103  209.8981   74.8527 H       693      M_A    0.0000
   4856 H         103.9229  209.4091   75.0537 H       693      M_A    0.0000
   4857 H         104.0636  208.2961   73.0846 H       693      M_A    0.0000
   4858 H         104.1106  209.8563   72.2762 H       693      M_A    0.0000
   4859 C         106.0059  208.0876   71.5270 C.3     694      M_A    0.0000
   4860 C         105.9279  208.7493   70.1543 C.3     694      M_A    0.0000
   4861 O         106.4442  207.8776   69.1485 O.3     694      M_A    0.0000
   4862 H         106.9180  207.4896   71.6264 H       694      M_A    0.0000
   4863 H         105.1516  207.4110   71.6434 H       694      M_A    0.0000
   4864 H         104.8922  209.0450   69.9338 H       694      M_A    0.0000
   4865 H         106.5236  209.6703   70.1280 H       694      M_A    0.0000
   4866 C         105.9962  208.2505   67.8613 C.3     695      M_A    0.0000
   4867 C         105.1279  207.1716   67.2207 C.3     695      M_A    0.0000
   4868 O         103.8852  207.7227   66.7849 O.3     695      M_A    0.0000
   4869 H         105.4573  209.2013   67.9320 H       695      M_A    0.0000
   4870 H         106.8784  208.4155   67.2321 H       695      M_A    0.0000
   4871 H         105.6670  206.6944   66.3897 H       695      M_A    0.0000
   4872 H         104.8997  206.3738   67.9385 H       695      M_A    0.0000
   4873 C         102.8324  206.7887   66.9118 C.3     696      M_A    0.0000
   4874 C         101.7615  206.9819   65.8422 C.3     696      M_A    0.0000
   4875 O         101.7238  205.8577   64.9631 O.3     696      M_A    0.0000
   4876 H         103.2473  205.7757   66.8774 H       696      M_A    0.0000
   4877 H         102.3765  206.9269   67.8989 H       696      M_A    0.0000
   4878 H         100.7827  207.1551   66.3121 H       696      M_A    0.0000
   4879 H         101.9717  207.8692   65.2320 H       696      M_A    0.0000
   4880 C         100.4941  205.1679   65.0581 C.3     697      M_A    0.0000
   4881 C         100.0556  204.5887   63.7163 C.3     697      M_A    0.0000
   4882 O          99.5420  203.2676   63.8853 O.3     697      M_A    0.0000
   4883 H         100.5821  204.3836   65.8174 H       697      M_A    0.0000
   4884 H          99.7345  205.8790   65.4026 H       697      M_A    0.0000
   4885 H          99.3145  205.2483   63.2423 H       697      M_A    0.0000
   4886 H         100.9016  204.5258   63.0206 H       697      M_A    0.0000
   4887 C          98.8066  202.8498   62.7533 C.3     698      M_A    0.0000
   4888 C          97.6014  201.9953   63.1348 C.3     698      M_A    0.0000
   4889 O          96.4864  202.3004   62.2973 O.3     698      M_A    0.0000
   4890 H          98.5005  203.7317   62.1805 H       698      M_A    0.0000
   4891 H          99.4744  202.2571   62.1175 H       698      M_A    0.0000
   4892 H          97.8609  200.9282   63.0822 H       698      M_A    0.0000
   4893 H          97.2963  202.1874   64.1710 H       698      M_A    0.0000
   4894 C          95.9448  201.1339   61.7118 C.3     699      M_A    0.0000
   4895 C          94.4630  201.2911   61.3835 C.3     699      M_A    0.0000
   4896 O          94.2557  201.2474   59.9718 O.3     699      M_A    0.0000
   4897 H          96.5234  200.8818   60.8167 H       699      M_A    0.0000
   4898 H          96.0644  200.3115   62.4263 H       699      M_A    0.0000
   4899 H          93.8761  200.5166   61.8981 H       699      M_A    0.0000
   4900 H          94.0817  202.2555   61.7419 H       699      M_A    0.0000
   4901 C          93.0428  200.5991   59.6470 C.3     700      M_A    0.0000
   4902 C          91.8813  201.0903   60.5059 C.3     700      M_A    0.0000
   4903 O          90.8388  201.6160   59.6845 O.3     700      M_A    0.0000
   4904 H          92.8350  200.7430   58.5813 H       700      M_A    0.0000
   4905 H          93.1792  199.5248   59.8160 H       700      M_A    0.0000
   4906 H          91.5132  200.2768   61.1475 H       700      M_A    0.0000
   4907 H          92.2041  201.8929   61.1808 H       700      M_A    0.0000
   4908 C          89.8741  200.6297   59.3788 C.3     701      M_A    0.0000
   4909 C          88.4495  201.1393   59.5765 C.3     701      M_A    0.0000
   4910 O          87.5180  200.2969   58.8980 O.3     701      M_A    0.0000
   4911 H          90.0308  200.2826   58.3520 H       701      M_A    0.0000
   4912 H          90.0412  199.7766   60.0462 H       701      M_A    0.0000
   4913 H          88.2172  201.2102   60.6488 H       701      M_A    0.0000
   4914 H          88.3345  202.1515   59.1688 H       701      M_A    0.0000
   4915 C          87.8471  198.9314   59.0533 C.3     702      M_A    0.0000
   4916 C          86.8313  198.1907   59.9179 C.3     702      M_A    0.0000
   4917 O          86.5041  196.9290   59.3358 O.3     702      M_A    0.0000
   4918 H          87.9349  198.4703   58.0637 H       702      M_A    0.0000
   4919 H          88.8304  198.8744   59.5340 H       702      M_A    0.0000
   4920 H          87.2184  198.0712   60.9400 H       702      M_A    0.0000
   4921 H          85.8995  198.7632   60.0063 H       702      M_A    0.0000
   4922 C          85.4328  196.3076   60.0163 C.3     703      M_A    0.0000
   4923 C          84.5330  195.5176   59.0705 C.3     703      M_A    0.0000
   4924 O          83.7782  194.5453   59.7935 O.3     703      M_A    0.0000
   4925 H          85.8358  195.6657   60.8068 H       703      M_A    0.0000
   4926 H          84.8387  197.0929   60.4976 H       703      M_A    0.0000
   4927 H          83.8757  196.2005   58.5132 H       703      M_A    0.0000
   4928 H          85.1270  194.9810   58.3203 H       703      M_A    0.0000
   4929 C          82.6374  195.1205   60.3973 C.3     704      M_A    0.0000
   4930 C          81.7720  194.0779   61.0990 C.3     704      M_A    0.0000
   4931 O          81.6099  194.4083   62.4783 O.3     704      M_A    0.0000
   4932 H          82.9578  195.9022   61.0943 H       704      M_A    0.0000
   4933 H          82.0453  195.6008   59.6099 H       704      M_A    0.0000
   4934 H          80.8003  193.9882   60.5925 H       704      M_A    0.0000
   4935 H          82.2371  193.0854   61.0515 H       704      M_A    0.0000
   4936 C          81.3516  193.2589   63.2586 C.3     705      M_A    0.0000
   4937 C          82.5929  192.3874   63.4255 C.3     705      M_A    0.0000
   4938 O          82.3180  191.2851   64.2900 O.3     705      M_A    0.0000
   4939 H          80.9526  193.5688   64.2303 H       705      M_A    0.0000
   4940 H          80.5743  192.6754   62.7520 H       705      M_A    0.0000
   4941 H          82.9516  192.0459   62.4439 H       705      M_A    0.0000
   4942 H          83.4161  192.9583   63.8728 H       705      M_A    0.0000
   4943 C          81.6636  190.2386   63.6017 C.3     706      M_A    0.0000
   4944 C          81.7696  188.9094   64.3433 C.3     706      M_A    0.0000
   4945 O          80.6634  188.0667   64.0207 O.3     706      M_A    0.0000
   4946 H          80.6172  190.5179   63.4383 H       706      M_A    0.0000
   4947 H          82.1364  190.1347   62.6184 H       706      M_A    0.0000
   4948 H          82.7263  188.4201   64.1104 H       706      M_A    0.0000
   4949 H          81.7590  189.0639   65.4295 H       706      M_A    0.0000
   4950 C          81.0509  186.7097   63.9475 C.3     707      M_A    0.0000
   4951 C          80.6399  185.9273   65.1913 C.3     707      M_A    0.0000
   4952 O          80.2578  184.5970   64.8421 O.3     707      M_A    0.0000
   4953 H          80.6250  186.2648   63.0419 H       707      M_A    0.0000
   4954 H          82.1423  186.6757   63.8518 H       707      M_A    0.0000
   4955 H          81.4565  185.9286   65.9275 H       707      M_A    0.0000
   4956 H          79.7799  186.3974   65.6844 H       707      M_A    0.0000
   4957 C          81.3862  183.7679   64.6514 C.3     708      M_A    0.0000
   4958 C          81.0362  182.2870   64.7642 C.3     708      M_A    0.0000
   4959 O          80.5835  181.7827   63.5078 O.3     708      M_A    0.0000
   4960 H          81.8361  183.9948   63.6791 H       708      M_A    0.0000
   4961 H          82.1224  184.0181   65.4238 H       708      M_A    0.0000
   4962 H          81.9022  181.7196   65.1344 H       708      M_A    0.0000
   4963 H          80.2302  182.1284   65.4915 H       708      M_A    0.0000
   4964 C          79.2978  182.2732   63.1865 C.3     709      M_A    0.0000
   4965 C          78.5718  181.3724   62.1917 C.3     709      M_A    0.0000
   4966 O          77.4113  180.7971   62.7920 O.3     709      M_A    0.0000
   4967 H          78.7192  182.3904   64.1090 H       709      M_A    0.0000
   4968 H          79.4180  183.2678   62.7419 H       709      M_A    0.0000
   4969 H          78.3140  181.9385   61.2851 H       709      M_A    0.0000
   4970 H          79.2169  180.5467   61.8664 H       709      M_A    0.0000
   4971 C          76.8978  179.7361   62.0126 C.3     710      M_A    0.0000
   4972 C          77.7928  178.5014   62.0629 C.3     710      M_A    0.0000
   4973 O          77.0602  177.3711   62.5358 O.3     710      M_A    0.0000
   4974 H          75.8828  179.5027   62.3512 H       710      M_A    0.0000
   4975 H          76.8296  180.0825   60.9750 H       710      M_A    0.0000
   4976 H          78.2298  178.3088   61.0725 H       710      M_A    0.0000
   4977 H          78.6365  178.6557   62.7471 H       710      M_A    0.0000
   4978 C          76.2935  176.7833   61.5045 C.3     711      M_A    0.0000
   4979 C          76.3828  175.2602   61.5196 C.3     711      M_A    0.0000
   4980 O          75.1825  174.6936   62.0451 O.3     711      M_A    0.0000
   4981 H          75.2551  177.1193   61.5954 H       711      M_A    0.0000
   4982 H          76.6784  177.1516   60.5467 H       711      M_A    0.0000
   4983 H          76.5942  174.8824   60.5089 H       711      M_A    0.0000
   4984 H          77.2112  174.9218   62.1545 H       711      M_A    0.0000
   4985 C          75.2401  173.2818   62.0596 C.3     712      M_A    0.0000
   4986 C          76.3093  172.7606   63.0153 C.3     712      M_A    0.0000
   4987 O          76.0050  171.4284   63.4283 O.3     712      M_A    0.0000
   4988 H          74.2520  172.8864   62.3183 H       712      M_A    0.0000
   4989 H          75.4769  172.9437   61.0442 H       712      M_A    0.0000
   4990 H          77.3005  172.8161   62.5426 H       712      M_A    0.0000
   4991 H          76.3638  173.3803   63.9190 H       712      M_A    0.0000
   4992 C          74.8292  170.9502   62.8072 C.3     713      M_A    0.0000
   4993 C          75.0976  170.4177   61.4028 C.3     713      M_A    0.0000
   4994 O          74.5022  169.1314   61.2330 O.3     713      M_A    0.0000
   4995 H          74.3773  170.1807   63.4421 H       713      M_A    0.0000
   4996 H          74.1203  171.7835   62.7410 H       713      M_A    0.0000
   4997 H          74.7310  171.1305   60.6501 H       713      M_A    0.0000
   4998 H          76.1744  170.3074   61.2239 H       713      M_A    0.0000
   4999 C          74.4630  168.7552   59.8715 C.3     714      M_A    0.0000
   5000 C          75.0034  167.3457   59.6494 C.3     714      M_A    0.0000
   5001 O          74.3213  166.7130   58.5668 O.3     714      M_A    0.0000
   5002 H          73.4350  168.8468   59.5049 H       714      M_A    0.0000
   5003 H          75.0801  169.4644   59.3080 H       714      M_A    0.0000
   5004 H          76.0883  167.3785   59.4740 H       714      M_A    0.0000
   5005 H          74.8541  166.7232   60.5405 H       714      M_A    0.0000
   5006 C          74.6379  165.3380   58.4889 C.3     715      M_A    0.0000
   5007 C          74.1607  164.7120   57.1818 C.3     715      M_A    0.0000
   5008 O          75.2082  163.9523   56.5790 O.3     715      M_A    0.0000
   5009 H          75.7185  165.2123   58.6160 H       715      M_A    0.0000
   5010 H          74.1446  164.8306   59.3258 H       715      M_A    0.0000
   5011 H          73.2697  164.0931   57.3604 H       715      M_A    0.0000
   5012 H          73.8600  165.4848   56.4633 H       715      M_A    0.0000
   5013 C          74.7779  163.3370   55.3819 C.3     716      M_A    0.0000
   5014 C          74.4280  164.3592   54.3045 C.3     716      M_A    0.0000
   5015 O          73.8484  163.7133   53.1710 O.3     716      M_A    0.0000
   5016 H          75.5550  162.6475   55.0351 H       716      M_A    0.0000
   5017 H          73.8856  162.7429   55.6101 H       716      M_A    0.0000
   5018 H          73.7561  165.1272   54.7140 H       716      M_A    0.0000
   5019 H          75.3251  164.8876   53.9584 H       716      M_A    0.0000
   5020 C          72.6819  162.9979   53.5238 C.3     717      M_A    0.0000
   5021 C          71.6104  163.0767   52.4403 C.3     717      M_A    0.0000
   5022 O          70.8484  161.8703   52.4014 O.3     717      M_A    0.0000
   5023 H          72.9515  161.9582   53.7383 H       717      M_A    0.0000
   5024 H          72.2851  163.4347   54.4473 H       717      M_A    0.0000
   5025 H          70.9658  163.9517   52.6071 H       717      M_A    0.0000
   5026 H          72.0628  163.2116   51.4499 H       717      M_A    0.0000
   5027 C          70.5494  161.4051   53.7018 C.3     718      M_A    0.0000
   5028 C          69.1083  160.9178   53.8202 C.3     718      M_A    0.0000
   5029 O          69.0749  159.5392   54.1892 O.3     718      M_A    0.0000
   5030 H          71.2575  160.6138   53.9699 H       718      M_A    0.0000
   5031 H          70.7011  162.2361   54.4002 H       718      M_A    0.0000
   5032 H          68.5559  161.5382   54.5406 H       718      M_A    0.0000
   5033 H          68.5814  161.0145   52.8627 H       718      M_A    0.0000
   5034 C          67.8624  158.9282   53.7973 C.3     719      M_A    0.0000
   5035 C          67.8485  157.4330   54.1012 C.3     719      M_A    0.0000
   5036 O          66.5921  157.0472   54.6583 O.3     719      M_A    0.0000
   5037 H          67.0288  159.4396   54.2905 H       719      M_A    0.0000
   5038 H          67.7466  159.0715   52.7169 H       719      M_A    0.0000
   5039 H          68.0759  156.8587   53.1916 H       719      M_A    0.0000
   5040 H          68.6252  157.1736   54.8315 H       719      M_A    0.0000
   5041 C          66.5634  155.6677   54.9634 C.3     720      M_A    0.0000
   5042 C          67.7266  155.2535   55.8597 C.3     720      M_A    0.0000
   5043 O          67.7503  153.8359   56.0258 O.3     720      M_A    0.0000
   5044 H          65.6012  155.4241   55.4265 H       720      M_A    0.0000
   5045 H          66.6272  155.1126   54.0204 H       720      M_A    0.0000
   5046 H          68.6755  155.6234   55.4452 H       720      M_A    0.0000
   5047 H          67.6315  155.6996   56.8575 H       720      M_A    0.0000
   5048 C          68.3695  153.1967   54.9281 C.3     721      M_A    0.0000
   5049 C          68.3548  151.6772   55.0655 C.3     721      M_A    0.0000
   5050 O          68.1131  151.0625   53.7999 O.3     721      M_A    0.0000
   5051 H          67.8751  153.5148   54.0040 H       721      M_A    0.0000
   5052 H          69.4098  153.5386   54.8820 H       721      M_A    0.0000
   5053 H          69.2993  151.3269   55.5063 H       721      M_A    0.0000
   5054 H          67.5580  151.3522   55.7460 H       721      M_A    0.0000
   5055 C          68.7940  149.8296   53.6852 C.3     722      M_A    0.0000
   5056 C          67.8690  148.6390   53.9200 C.3     722      M_A    0.0000
   5057 O          68.1747  147.5810   53.0116 O.3     722      M_A    0.0000
   5058 H          69.2681  149.7735   52.6996 H       722      M_A    0.0000
   5059 H          69.5907  149.8134   54.4377 H       722      M_A    0.0000
   5060 H          67.9411  148.3026   54.9644 H       722      M_A    0.0000
   5061 H          66.8205  148.9185   53.7580 H       722      M_A    0.0000
   5062 C          67.8234  146.3215   53.5475 C.3     723      M_A    0.0000
   5063 C          68.3350  145.1691   52.6882 C.3     723      M_A    0.0000
   5064 O          69.3675  144.4568   53.3697 O.3     723      M_A    0.0000
   5065 H          68.2041  146.2502   54.5719 H       723      M_A    0.0000
   5066 H          66.7297  146.2692   53.5960 H       723      M_A    0.0000
   5067 H          67.5045  144.5032   52.4129 H       723      M_A    0.0000
   5068 H          68.7582  145.5396   51.7462 H       723      M_A    0.0000
   5069 C          69.3931  143.0955   52.9916 C.3     724      M_A    0.0000
   5070 C          70.6085  142.7610   52.1319 C.3     724      M_A    0.0000
   5071 O          71.1498  141.4931   52.5022 O.3     724      M_A    0.0000
   5072 H          69.3631  142.4737   53.8927 H       724      M_A    0.0000
   5073 H          68.4837  142.8885   52.4158 H       724      M_A    0.0000
   5074 H          70.3378  142.7845   51.0665 H       724      M_A    0.0000
   5075 H          71.4009  143.5081   52.2649 H       724      M_A    0.0000
   5076 C          71.6882  140.8146   51.3856 C.3     725      M_A    0.0000
   5077 C          71.4857  139.3051   51.4786 C.3     725      M_A    0.0000
   5078 O          70.2323  138.9321   50.9062 O.3     725      M_A    0.0000
   5079 H          71.2393  141.2181   50.4717 H       725      M_A    0.0000
   5080 H          72.7629  141.0266   51.3486 H       725      M_A    0.0000
   5081 H          72.3199  138.7796   50.9918 H       725      M_A    0.0000
   5082 H          71.4810  138.9733   52.5244 H       725      M_A    0.0000
   5083 C          69.9082  137.5887   51.2014 C.3     726      M_A    0.0000
   5084 C          68.4209  137.4069   51.4895 C.3     726      M_A    0.0000
   5085 O          67.8897  136.3298   50.7177 O.3     726      M_A    0.0000
   5086 H          70.2306  136.9523   50.3704 H       726      M_A    0.0000
   5087 H          70.4800  137.2911   52.0879 H       726      M_A    0.0000
   5088 H          68.2596  137.2457   52.5651 H       726      M_A    0.0000
   5089 H          67.8566  138.3100   51.2252 H       726      M_A    0.0000
   5090 C          67.8198  136.6617   49.3459 C.3     727      M_A    0.0000
   5091 C          67.4111  135.4689   48.4867 C.3     727      M_A    0.0000
   5092 O          66.0036  135.2476   48.5748 O.3     727      M_A    0.0000
   5093 H          67.1259  137.4990   49.2157 H       727      M_A    0.0000
   5094 H          68.8128  137.0022   49.0306 H       727      M_A    0.0000
   5095 H          67.7268  135.6255   47.4452 H       727      M_A    0.0000
   5096 H          67.9096  134.5521   48.8252 H       727      M_A    0.0000
   5097 C          65.6963  134.2413   49.5183 C.3     728      M_A    0.0000
   5098 C          65.0589  133.0181   48.8660 C.3     728      M_A    0.0000
   5099 O          65.6500  131.8189   49.3665 O.3     728      M_A    0.0000
   5100 H          66.6081  133.9700   50.0610 H       728      M_A    0.0000
   5101 H          64.9919  134.6637   50.2440 H       728      M_A    0.0000
   5102 H          63.9713  133.0254   49.0274 H       728      M_A    0.0000
   5103 H          65.2092  133.0296   47.7792 H       728      M_A    0.0000
   5104 C          64.6876  130.7972   49.5303 C.3     729      M_A    0.0000
   5105 C          65.2988  129.4057   49.3947 C.3     729      M_A    0.0000
   5106 O          65.5170  128.8274   50.6815 O.3     729      M_A    0.0000
   5107 H          64.1972  130.9206   50.5018 H       729      M_A    0.0000
   5108 H          63.9240  130.9261   48.7547 H       729      M_A    0.0000
   5109 H          64.6546  128.7672   48.7734 H       729      M_A    0.0000
   5110 H          66.2699  129.4513   48.8862 H       729      M_A    0.0000
   5111 C          65.6631  127.4242   50.5999 C.3     730      M_A    0.0000
   5112 C          67.0791  126.9734   50.9461 C.3     730      M_A    0.0000
   5113 O          67.0463  125.7943   51.7503 O.3     730      M_A    0.0000
   5114 H          64.9256  126.9494   51.2558 H       730      M_A    0.0000
   5115 H          65.4359  127.1210   49.5715 H       730      M_A    0.0000
   5116 H          67.6621  126.8147   50.0275 H       730      M_A    0.0000
   5117 H          67.6085  127.7461   51.5174 H       730      M_A    0.0000
   5118 C          65.9645  124.9569   51.3966 C.3     731      M_A    0.0000
   5119 C          66.2267  123.4974   51.7563 C.3     731      M_A    0.0000
   5120 O          65.0884  122.9294   52.4042 O.3     731      M_A    0.0000
   5121 H          65.0539  125.3259   51.8805 H       731      M_A    0.0000
   5122 H          65.8186  125.0343   50.3131 H       731      M_A    0.0000
   5123 H          66.5002  122.9280   50.8564 H       731      M_A    0.0000
   5124 H          67.0752  123.4095   52.4463 H       731      M_A    0.0000
   5125 C          65.3708  121.6403   52.9095 C.3     732      M_A    0.0000
   5126 C          64.1768  120.6990   52.7807 C.3     732      M_A    0.0000
   5127 O          64.6068  119.3964   52.3854 O.3     732      M_A    0.0000
   5128 H          66.2487  121.2382   52.3927 H       732      M_A    0.0000
   5129 H          65.6285  121.7430   53.9698 H       732      M_A    0.0000
   5130 H          63.6164  120.6653   53.7261 H       732      M_A    0.0000
   5131 H          63.4741  121.0583   52.0186 H       732      M_A    0.0000
   5132 C          63.5095  118.5594   52.0819 C.3     733      M_A    0.0000
   5133 C          63.9526  117.2190   51.5031 C.3     733      M_A    0.0000
   5134 O          63.5660  116.1491   52.3655 O.3     733      M_A    0.0000
   5135 H          62.9059  118.4199   52.9851 H       733      M_A    0.0000
   5136 H          62.8859  119.0759   51.3432 H       733      M_A    0.0000
   5137 H          63.5400  117.0870   50.4925 H       733      M_A    0.0000
   5138 H          65.0440  117.1783   51.3980 H       733      M_A    0.0000
   5139 C          64.1226  114.9198   51.9461 C.3     734      M_A    0.0000
   5140 C          65.6474  114.9317   52.0004 C.3     734      M_A    0.0000
   5141 O          66.1788  113.7498   51.4015 O.3     734      M_A    0.0000
   5142 H          63.7114  114.1128   52.5618 H       734      M_A    0.0000
   5143 H          63.8061  114.7419   50.9120 H       734      M_A    0.0000
   5144 H          66.0375  115.8369   51.5133 H       734      M_A    0.0000
   5145 H          66.0031  114.9626   53.0379 H       734      M_A    0.0000
   5146 C          66.2288  113.8610   49.9936 C.3     735      M_A    0.0000
   5147 C          67.2467  114.9013   49.5357 C.3     735      M_A    0.0000
   5148 O          67.8216  114.5223   48.2852 O.3     735      M_A    0.0000
   5149 H          66.4486  112.8774   49.5651 H       735      M_A    0.0000
   5150 H          65.2341  114.1603   49.6437 H       735      M_A    0.0000
   5151 H          66.7751  115.8927   49.4748 H       735      M_A    0.0000
   5152 H          68.0662  114.9938   50.2593 H       735      M_A    0.0000
   5153 C          66.8389  114.0506   47.3859 C.3     736      M_A    0.0000
   5154 C          67.4402  113.6252   46.0496 C.3     736      M_A    0.0000
   5155 O          67.8182  112.2491   46.0863 O.3     736      M_A    0.0000
   5156 H          66.2927  113.2249   47.8543 H       736      M_A    0.0000
   5157 H          66.1246  114.8632   47.2106 H       736      M_A    0.0000
   5158 H          66.7303  113.8233   45.2338 H       736      M_A    0.0000
   5159 H          68.3418  114.2075   45.8217 H       736      M_A    0.0000
   5160 C          68.9403  112.0430   46.9201 C.3     737      M_A    0.0000
   5161 C          69.1809  110.5631   47.2035 C.3     737      M_A    0.0000
   5162 O          69.9704  109.9772   46.1685 O.3     737      M_A    0.0000
   5163 H          69.8190  112.5048   46.4574 H       737      M_A    0.0000
   5164 H          68.7549  112.5600   47.8686 H       737      M_A    0.0000
   5165 H          69.6548  110.4373   48.1877 H       737      M_A    0.0000
   5166 H          68.2330  110.0123   47.2454 H       737      M_A    0.0000
   5167 C          69.1899  109.1541   45.3258 C.3     738      M_A    0.0000
   5168 C          69.5602  107.6800   45.4598 C.3     738      M_A    0.0000
   5169 O          68.3993  106.8589   45.3338 O.3     738      M_A    0.0000
   5170 H          68.1301  109.3173   45.5487 H       738      M_A    0.0000
   5171 H          69.3634  109.4706   44.2909 H       738      M_A    0.0000
   5172 H          70.3230  107.4111   44.7149 H       738      M_A    0.0000
   5173 H          70.0031  107.4743   46.4423 H       738      M_A    0.0000
   5174 C          67.4461  107.4403   44.4677 C.3     739      M_A    0.0000
   5175 C          66.8583  106.4225   43.4946 C.3     739      M_A    0.0000
   5176 O          65.5831  105.9718   43.9515 O.3     739      M_A    0.0000
   5177 H          66.6608  107.9137   45.0667 H       739      M_A    0.0000
   5178 H          67.9475  108.2292   43.8956 H       739      M_A    0.0000
   5179 H          66.7915  106.8561   42.4864 H       739      M_A    0.0000
   5180 H          67.5067  105.5416   43.4088 H       739      M_A    0.0000
   5181 C          65.2061  104.7635   43.3233 C.3     740      M_A    0.0000
   5182 C          66.0204  103.5758   43.8277 C.3     740      M_A    0.0000
   5183 O          65.1838  102.6585   44.5323 O.3     740      M_A    0.0000
   5184 H          64.1339  104.6009   43.4757 H       740      M_A    0.0000
   5185 H          65.3744  104.8769   42.2462 H       740      M_A    0.0000
   5186 H          66.5348  103.0848   42.9891 H       740      M_A    0.0000
   5187 H          66.8051  103.9038   44.5209 H       740      M_A    0.0000
   5188 C          65.5539  101.3190   44.2758 C.3     741      M_A    0.0000
   5189 C          65.0693  100.3702   45.3681 C.3     741      M_A    0.0000
   5190 O          64.5177   99.1856   44.7935 O.3     741      M_A    0.0000
   5191 H          65.1670  101.0230   43.2948 H       741      M_A    0.0000
   5192 H          66.6480  101.2750   44.2276 H       741      M_A    0.0000
   5193 H          65.8921  100.1342   46.0582 H       741      M_A    0.0000
   5194 H          64.2835  100.8381   45.9742 H       741      M_A    0.0000
   5195 C          65.3571   98.6605   43.7853 C.3     742      M_A    0.0000
   5196 C          65.1641   97.1580   43.6025 C.3     742      M_A    0.0000
   5197 O          65.1426   96.8213   42.2154 O.3     742      M_A    0.0000
   5198 H          65.1724   99.1994   42.8500 H       742      M_A    0.0000
   5199 H          66.3958   98.8514   44.0784 H       742      M_A    0.0000
   5200 H          65.9518   96.6065   44.1357 H       742      M_A    0.0000
   5201 H          64.2110   96.8291   44.0352 H       742      M_A    0.0000
   5202 C          66.4313   96.9078   41.6421 C.3     743      M_A    0.0000
   5203 C          67.1553   95.5647   41.6517 C.3     743      M_A    0.0000
   5204 O          67.4803   95.1618   40.3213 O.3     743      M_A    0.0000
   5205 H          66.3439   97.3025   40.6243 H       743      M_A    0.0000
   5206 H          67.0131   97.6284   42.2282 H       743      M_A    0.0000
   5207 H          68.0539   95.6225   42.2828 H       743      M_A    0.0000
   5208 H          66.5229   94.7809   42.0871 H       743      M_A    0.0000
   5209 C          67.5270   93.7544   40.2040 C.3     744      M_A    0.0000
   5210 C          68.9509   93.2414   40.0100 C.3     744      M_A    0.0000
   5211 O          69.2818   92.2892   41.0208 O.3     744      M_A    0.0000
   5212 H          67.0626   93.3064   41.0889 H       744      M_A    0.0000
   5213 H          66.9255   93.4687   39.3335 H       744      M_A    0.0000
   5214 H          69.0661   92.8130   39.0039 H       744      M_A    0.0000
   5215 H          69.6766   94.0612   40.0808 H       744      M_A    0.0000
   5216 C          70.3435   91.4503   40.6133 C.3     745      M_A    0.0000
   5217 C          71.2527   91.0683   41.7777 C.3     745      M_A    0.0000
   5218 O          71.1296   89.6771   42.0732 O.3     745      M_A    0.0000
   5219 H          69.9295   90.5608   40.1267 H       745      M_A    0.0000
   5220 H          70.9337   91.9927   39.8658 H       745      M_A    0.0000
   5221 H          72.2941   91.3382   41.5504 H       745      M_A    0.0000
   5222 H          70.9819   91.6222   42.6853 H       745      M_A    0.0000
   5223 C          72.1981   89.2230   42.8788 C.3     746      M_A    0.0000
   5224 C          71.7093   88.4274   44.0856 C.3     746      M_A    0.0000
   5225 O          72.0257   87.0436   43.9342 O.3     746      M_A    0.0000
   5226 H          72.8817   88.6282   42.2637 H       746      M_A    0.0000
   5227 H          72.7499   90.1012   43.2330 H       746      M_A    0.0000
   5228 H          72.1404   88.8373   45.0103 H       746      M_A    0.0000
   5229 H          70.6202   88.5056   44.1924 H       746      M_A    0.0000
   5230 C          71.6014   86.2907   45.0522 C.3     747      M_A    0.0000
   5231 C          70.3633   85.4538   44.7445 C.3     747      M_A    0.0000
   5232 O          70.7074   84.0728   44.6342 O.3     747      M_A    0.0000
   5233 H          72.4296   85.6606   45.3938 H       747      M_A    0.0000
   5234 H          71.3635   86.9921   45.8602 H       747      M_A    0.0000
   5235 H          69.5956   85.6143   45.5151 H       747      M_A    0.0000
   5236 H          69.9114   85.7569   43.7917 H       747      M_A    0.0000
   5237 C          69.6292   83.3095   44.1325 C.3     748      M_A    0.0000
   5238 C          69.6521   81.8742   44.6496 C.3     748      M_A    0.0000
   5239 O          68.3326   81.4392   44.9776 O.3     748      M_A    0.0000
   5240 H          68.6884   83.8076   44.3902 H       748      M_A    0.0000
   5241 H          69.7073   83.2939   43.0394 H       748      M_A    0.0000
   5242 H          70.1189   81.2108   43.9073 H       748      M_A    0.0000
   5243 H          70.2600   81.7944   45.5595 H       748      M_A    0.0000
   5244 C          67.3775   81.9582   44.0746 C.3     749      M_A    0.0000
   5245 C          66.4197   80.8825   43.5710 C.3     749      M_A    0.0000
   5246 O          65.4045   80.6227   44.5404 O.3     749      M_A    0.0000
   5247 H          66.8339   82.7756   44.5602 H       749      M_A    0.0000
   5248 H          67.9172   82.3810   43.2195 H       749      M_A    0.0000
   5249 H          65.9846   81.1830   42.6070 H       749      M_A    0.0000
   5250 H          66.9495   79.9391   43.3893 H       749      M_A    0.0000
   5251 C          64.8483   79.3344   44.3743 C.3     750      M_A    0.0000
   5252 C          64.6407   78.6223   45.7077 C.3     750      M_A    0.0000
   5253 O          63.2781   78.2231   45.8551 O.3     750      M_A    0.0000
   5254 H          63.9068   79.4202   43.8212 H       750      M_A    0.0000
   5255 H          65.5401   78.7451   43.7615 H       750      M_A    0.0000
   5256 H          65.3205   77.7618   45.7882 H       750      M_A    0.0000
   5257 H          64.8817   79.2850   46.5483 H       750      M_A    0.0000
   5258 C          63.1764   76.9077   46.3615 C.3     751      M_A    0.0000
   5259 C          62.5578   76.8756   47.7559 C.3     751      M_A    0.0000
   5260 O          62.5042   75.5369   48.2488 O.3     751      M_A    0.0000
   5261 H          62.5988   76.2979   45.6586 H       751      M_A    0.0000
   5262 H          64.1872   76.4871   46.4122 H       751      M_A    0.0000
   5263 H          63.1215   77.5299   48.4363 H       751      M_A    0.0000
   5264 H          61.5306   77.2607   47.7387 H       751      M_A    0.0000
   5265 C          63.7457   75.1353   48.7911 C.3     752      M_A    0.0000
   5266 C          63.9941   73.6405   48.6115 C.3     752      M_A    0.0000
   5267 O          65.3621   73.3962   48.2848 O.3     752      M_A    0.0000
   5268 H          64.5446   75.7268   48.3313 H       752      M_A    0.0000
   5269 H          63.7364   75.3669   49.8623 H       752      M_A    0.0000
   5270 H          63.6958   73.0946   49.5181 H       752      M_A    0.0000
   5271 H          63.3839   73.2367   47.7939 H       752      M_A    0.0000
   5272 C          65.6399   73.7280   46.9396 C.3     753      M_A    0.0000
   5273 C          67.0048   73.2137   46.4915 C.3     753      M_A    0.0000
   5274 O          66.9309   71.8294   46.1509 O.3     753      M_A    0.0000
   5275 H          64.8406   73.3349   46.3023 H       753      M_A    0.0000
   5276 H          65.6265   74.8204   46.8523 H       753      M_A    0.0000
   5277 H          67.3784   73.8134   45.6491 H       753      M_A    0.0000
   5278 H          67.7455   73.3153   47.2945 H       753      M_A    0.0000
   5279 C          68.1950   71.2051   46.2461 C.3     754      M_A    0.0000
   5280 C          68.1152   69.8503   46.9435 C.3     754      M_A    0.0000
   5281 O          68.8429   68.8658   46.2092 O.3     754      M_A    0.0000
   5282 H          68.6223   71.1084   45.2423 H       754      M_A    0.0000
   5283 H          68.8533   71.8634   46.8244 H       754      M_A    0.0000
   5284 H          68.4841   69.9327   47.9760 H       754      M_A    0.0000
   5285 H          67.0760   69.5058   47.0143 H       754      M_A    0.0000
   5286 C          70.0853   69.3683   45.7611 C.3     755      M_A    0.0000
   5287 C          71.2344   68.4109   46.0629 C.3     755      M_A    0.0000
   5288 O          71.2557   67.3411   45.1179 O.3     755      M_A    0.0000
   5289 H          70.0190   69.5808   44.6888 H       755      M_A    0.0000
   5290 H          70.2703   70.3178   46.2763 H       755      M_A    0.0000
   5291 H          72.1896   68.9554   46.0720 H       755      M_A    0.0000
   5292 H          71.1235   67.9664   47.0598 H       755      M_A    0.0000
   5293 C          70.1665   66.4611   45.3083 C.3     756      M_A    0.0000
   5294 C          70.5340   65.0152   44.9883 C.3     756      M_A    0.0000
   5295 O          69.9918   64.1320   45.9700 O.3     756      M_A    0.0000
   5296 H          69.8041   66.5584   46.3372 H       756      M_A    0.0000
   5297 H          69.3570   66.7773   44.6404 H       756      M_A    0.0000
   5298 H          70.1890   64.7506   43.9783 H       756      M_A    0.0000
   5299 H          71.6224   64.8775   44.9879 H       756      M_A    0.0000
   5300 C          69.2534   63.0854   45.3729 C.3     757      M_A    0.0000
   5301 C          69.5924   61.7261   45.9774 C.3     757      M_A    0.0000
   5302 O          68.4035   60.9702   46.2076 O.3     757      M_A    0.0000
   5303 H          68.1843   63.3040   45.4661 H       757      M_A    0.0000
   5304 H          69.4964   63.0688   44.3042 H       757      M_A    0.0000
   5305 H          70.2908   61.1837   45.3240 H       757      M_A    0.0000
   5306 H          70.1004   61.8415   46.9430 H       757      M_A    0.0000
   5307 C          67.6128   60.8814   45.0397 C.3     758      M_A    0.0000
   5308 C          66.9261   59.5248   44.9131 C.3     758      M_A    0.0000
   5309 O          65.6265   59.5647   45.5026 O.3     758      M_A    0.0000
   5310 H          66.8811   61.6963   45.0407 H       758      M_A    0.0000
   5311 H          68.2707   61.0278   44.1754 H       758      M_A    0.0000
   5312 H          66.8772   59.2212   43.8575 H       758      M_A    0.0000
   5313 H          67.4982   58.7452   45.4316 H       758      M_A    0.0000
   5314 C          65.3998   58.4427   46.3312 C.3     759      M_A    0.0000
   5315 C          63.9158   58.2291   46.6149 C.3     759      M_A    0.0000
   5316 O          63.5976   56.8376   46.5941 O.3     759      M_A    0.0000
   5317 H          65.8443   57.5576   45.8638 H       759      M_A    0.0000
   5318 H          65.9211   58.6137   47.2800 H       759      M_A    0.0000
   5319 H          63.6435   58.6872   47.5766 H       759      M_A    0.0000
   5320 H          63.2961   58.7192   45.8537 H       759      M_A    0.0000
   5321 C          62.4519   56.5574   47.3723 C.3     760      M_A    0.0000
   5322 C          61.4821   55.6256   46.6516 C.3     760      M_A    0.0000
   5323 O          60.8179   54.7747   47.5858 O.3     760      M_A    0.0000
   5324 H          62.7666   56.1346   48.3324 H       760      M_A    0.0000
   5325 H          61.9443   57.5066   47.5787 H       760      M_A    0.0000
   5326 H          60.7620   56.2103   46.0612 H       760      M_A    0.0000
   5327 H          62.0128   54.9810   45.9398 H       760      M_A    0.0000
   5328 C          59.5722   54.3317   47.0869 C.3     761      M_A    0.0000
   5329 C          59.1217   53.0294   47.7422 C.3     761      M_A    0.0000
   5330 O          57.6973   52.9351   47.7407 O.3     761      M_A    0.0000
   5331 H          58.8287   55.1233   47.2284 H       761      M_A    0.0000
   5332 H          59.6802   54.1672   46.0087 H       761      M_A    0.0000
   5333 H          59.5799   52.1697   47.2323 H       761      M_A    0.0000
   5334 H          59.4531   52.9805   48.7869 H       761      M_A    0.0000
   5335 C          57.2513   51.8313   48.5020 C.3     762      M_A    0.0000
   5336 C          55.9299   51.2721   47.9828 C.3     762      M_A    0.0000
   5337 O          56.1487   50.0608   47.2598 O.3     762      M_A    0.0000
   5338 H          58.0311   51.0623   48.5072 H       762      M_A    0.0000
   5339 H          57.1118   52.1689   49.5354 H       762      M_A    0.0000
   5340 H          55.2289   51.1194   48.8160 H       762      M_A    0.0000
   5341 H          55.4458   51.9802   47.2987 H       762      M_A    0.0000
   5342 C          56.2740   48.9545   48.1300 C.3     763      M_A    0.0000
   5343 C          55.0748   48.0152   48.0408 C.3     763      M_A    0.0000
   5344 O          55.2470   47.0838   46.9728 O.3     763      M_A    0.0000
   5345 H          57.2070   48.4268   47.9051 H       763      M_A    0.0000
   5346 H          56.3486   49.3380   49.1540 H       763      M_A    0.0000
   5347 H          54.9242   47.5000   49.0004 H       763      M_A    0.0000
   5348 H          54.1518   48.5746   47.8433 H       763      M_A    0.0000
   5349 C          54.0745   46.3261   46.7533 C.3     764      M_A    0.0000
   5350 C          53.2511   46.8668   45.5881 C.3     764      M_A    0.0000
   5351 O          52.5697   45.8044   44.9213 O.3     764      M_A    0.0000
   5352 H          54.3512   45.2791   46.5896 H       764      M_A    0.0000
   5353 H          53.4691   46.3701   47.6659 H       764      M_A    0.0000
   5354 H          52.5468   47.6324   45.9442 H       764      M_A    0.0000
   5355 H          53.8942   47.3599   44.8485 H       764      M_A    0.0000
   5356 C          51.6515   45.1592   45.7802 C.3     765      M_A    0.0000
   5357 C          50.4968   44.5228   45.0124 C.3     765      M_A    0.0000
   5358 O          50.4732   43.1111   45.2235 O.3     765      M_A    0.0000
   5359 H          52.1857   44.4145   46.3798 H       765      M_A    0.0000
   5360 H          51.2482   45.9111   46.4682 H       765      M_A    0.0000
   5361 H          49.5443   44.9869   45.3060 H       765      M_A    0.0000
   5362 H          50.6022   44.6919   43.9335 H       765      M_A    0.0000
   5363 C          49.5998   42.4673   44.3182 C.3     766      M_A    0.0000
   5364 C          49.9467   40.9926   44.1362 C.3     766      M_A    0.0000
   5365 O          48.7726   40.1865   44.2342 O.3     766      M_A    0.0000
   5366 H          48.5690   42.5908   44.6670 H       766      M_A    0.0000
   5367 H          49.6850   42.9737   43.3499 H       766      M_A    0.0000
   5368 H          50.4581   40.8389   43.1750 H       766      M_A    0.0000
   5369 H          50.6433   40.6543   44.9134 H       766      M_A    0.0000
   5370 C          48.9918   38.8888   43.7198 C.3     767      M_A    0.0000
   5371 C          50.2824   38.2714   44.2501 C.3     767      M_A    0.0000
   5372 O          50.0540   36.9314   44.6860 O.3     767      M_A    0.0000
   5373 H          48.1267   38.2600   43.9558 H       767      M_A    0.0000
   5374 H          49.0578   38.9656   42.6284 H       767      M_A    0.0000
   5375 H          51.0671   38.3134   43.4810 H       767      M_A    0.0000
   5376 H          50.6633   38.8362   45.1101 H       767      M_A    0.0000
   5377 C          50.0669   36.0254   43.6016 C.3     768      M_A    0.0000
   5378 C          49.7042   34.6076   44.0336 C.3     768      M_A    0.0000
   5379 O          49.1008   33.8945   42.9541 O.3     768      M_A    0.0000
   5380 H          49.3858   36.3883   42.8245 H       768      M_A    0.0000
   5381 H          51.0784   36.0195   43.1794 H       768      M_A    0.0000
   5382 H          50.5960   34.0854   44.4089 H       768      M_A    0.0000
   5383 H          48.9842   34.6215   44.8613 H       768      M_A    0.0000
   5384 C          49.7752   34.1331   41.7355 C.3     769      M_A    0.0000
   5385 C          50.4391   32.8721   41.1902 C.3     769      M_A    0.0000
   5386 O          49.4759   32.0375   40.5471 O.3     769      M_A    0.0000
   5387 H          49.0680   34.5521   41.0117 H       769      M_A    0.0000
   5388 H          50.5474   34.8888   41.9200 H       769      M_A    0.0000
   5389 H          51.2570   33.1395   40.5058 H       769      M_A    0.0000
   5390 H          50.8933   32.2864   41.9992 H       769      M_A    0.0000
   5391 C          48.2772   31.9626   41.2917 C.3     770      M_A    0.0000
   5392 C          47.5231   30.6610   41.0362 C.3     770      M_A    0.0000
   5393 O          47.8308   29.6981   42.0441 O.3     770      M_A    0.0000
   5394 H          48.5090   32.0828   42.3553 H       770      M_A    0.0000
   5395 H          47.6421   32.8047   40.9936 H       770      M_A    0.0000
   5396 H          46.4417   30.8530   40.9834 H       770      M_A    0.0000
   5397 H          47.8063   30.2264   40.0693 H       770      M_A    0.0000
   5398 C          48.1560   28.4442   41.4795 C.3     771      M_A    0.0000
   5399 C          49.4770   28.4831   40.7170 C.3     771      M_A    0.0000
   5400 O          50.5786   28.3753   41.6185 O.3     771      M_A    0.0000
   5401 H          48.1799   27.6902   42.2735 H       771      M_A    0.0000
   5402 H          47.3538   28.1690   40.7852 H       771      M_A    0.0000
   5403 H          49.5013   27.6869   39.9590 H       771      M_A    0.0000
   5404 H          49.5888   29.4295   40.1734 H       771      M_A    0.0000
   5405 C          50.4028   29.2017   42.7512 C.3     772      M_A    0.0000
   5406 C          51.6411   29.2257   43.6423 C.3     772      M_A    0.0000
   5407 O          51.5587   30.2945   44.5851 O.3     772      M_A    0.0000
   5408 H          50.1349   30.2105   42.4194 H       772      M_A    0.0000
   5409 H          49.5584   28.8075   43.3282 H       772      M_A    0.0000
   5410 H          51.7647   28.2564   44.1464 H       772      M_A    0.0000
   5411 H          52.5498   29.3817   43.0475 H       772      M_A    0.0000
   5412 C          50.7646   29.9412   45.6993 C.3     773      M_A    0.0000
   5413 C          49.9242   31.1122   46.1998 C.3     773      M_A    0.0000
   5414 O          50.2152   31.3876   47.5699 O.3     773      M_A    0.0000
   5415 H          50.1332   29.0873   45.4317 H       773      M_A    0.0000
   5416 H          51.4363   29.6178   46.5028 H       773      M_A    0.0000
   5417 H          50.0930   31.9972   45.5695 H       773      M_A    0.0000
   5418 H          48.8531   30.8845   46.1308 H       773      M_A    0.0000
   5419 C          50.9576   32.5817   47.7112 C.3     774      M_A    0.0000
   5420 C          52.4493   32.3130   47.8862 C.3     774      M_A    0.0000
   5421 O          53.1678   32.6962   46.7136 O.3     774      M_A    0.0000
   5422 H          50.7706   33.2234   46.8436 H       774      M_A    0.0000
   5423 H          50.5855   33.1069   48.5983 H       774      M_A    0.0000
   5424 H          52.8275   32.8368   48.7759 H       774      M_A    0.0000
   5425 H          52.6390   31.2453   48.0534 H       774      M_A    0.0000
   5426 C          53.2912   31.6190   45.8074 C.3     775      M_A    0.0000
   5427 C          52.8460   32.0000   44.3986 C.3     775      M_A    0.0000
   5428 O          53.6718   33.0412   43.8772 O.3     775      M_A    0.0000
   5429 H          54.3275   31.2648   45.8123 H       775      M_A    0.0000
   5430 H          52.6593   30.7999   46.1695 H       775      M_A    0.0000
   5431 H          52.8568   31.1159   43.7450 H       775      M_A    0.0000
   5432 H          51.8129   32.3696   44.3998 H       775      M_A    0.0000
   5433 C          53.1038   33.6217   42.7208 C.3     776      M_A    0.0000
   5434 C          52.7601   35.0939   42.9271 C.3     776      M_A    0.0000
   5435 O          53.7677   35.9280   42.3554 O.3     776      M_A    0.0000
   5436 H          53.7932   33.4908   41.8799 H       776      M_A    0.0000
   5437 H          52.1850   33.0728   42.4847 H       776      M_A    0.0000
   5438 H          51.7699   35.3154   42.5034 H       776      M_A    0.0000
   5439 H          52.6995   35.3370   43.9953 H       776      M_A    0.0000
   5440 C          53.3605   36.4491   41.1065 C.3     777      M_A    0.0000
   5441 C          53.0286   37.9363   41.1856 C.3     777      M_A    0.0000
   5442 O          54.1996   38.7228   40.9669 O.3     777      M_A    0.0000
   5443 H          54.1451   36.2580   40.3666 H       777      M_A    0.0000
   5444 H          52.4652   35.9024   40.7890 H       777      M_A    0.0000
   5445 H          52.2377   38.1874   40.4642 H       777      M_A    0.0000
   5446 H          52.6368   38.1989   42.1762 H       777      M_A    0.0000
   5447 C          54.0290   40.0455   41.4340 C.3     778      M_A    0.0000
   5448 C          55.3131   40.6136   42.0312 C.3     778      M_A    0.0000
   5449 O          55.7388   41.7637   41.3005 O.3     778      M_A    0.0000
   5450 H          53.6651   40.6707   40.6117 H       778      M_A    0.0000
   5451 H          53.2535   40.0320   42.2084 H       778      M_A    0.0000
   5452 H          55.1655   40.8479   43.0953 H       778      M_A    0.0000
   5453 H          56.1255   39.8775   41.9876 H       778      M_A    0.0000
   5454 C          57.1481   41.8417   41.2340 C.3     779      M_A    0.0000
   5455 C          57.6830   43.1211   41.8706 C.3     779      M_A    0.0000
   5456 O          58.9784   42.8991   42.4279 O.3     779      M_A    0.0000
   5457 H          57.5781   40.9538   41.7097 H       779      M_A    0.0000
   5458 H          57.4371   41.8241   40.1769 H       779      M_A    0.0000
   5459 H          57.6999   43.9346   41.1311 H       779      M_A    0.0000
   5460 H          57.0286   43.4580   42.6843 H       779      M_A    0.0000
   5461 C          59.1776   43.6687   43.5962 C.3     780      M_A    0.0000
   5462 C          60.6430   44.0457   43.7925 C.3     780      M_A    0.0000
   5463 O          60.8705   45.3965   43.3906 O.3     780      M_A    0.0000
   5464 H          58.5429   44.5601   43.5495 H       780      M_A    0.0000
   5465 H          58.8473   43.0713   44.4537 H       780      M_A    0.0000
   5466 H          60.9395   43.8845   44.8389 H       780      M_A    0.0000
   5467 H          61.2972   43.4077   43.1852 H       780      M_A    0.0000
   5468 C          62.2060   45.7900   43.6320 C.3     781      M_A    0.0000
   5469 C          62.4967   47.1907   43.1012 C.3     781      M_A    0.0000
   5470 O          62.9832   48.0314   44.1474 O.3     781      M_A    0.0000
   5471 H          62.4094   45.7243   44.7062 H       781      M_A    0.0000
   5472 H          62.8647   45.0752   43.1256 H       781      M_A    0.0000
   5473 H          63.2092   47.1395   42.2653 H       781      M_A    0.0000
   5474 H          61.5867   47.6560   42.7023 H       781      M_A    0.0000
   5475 C          63.7684   49.0899   43.6374 C.3     782      M_A    0.0000
   5476 C          63.4136   50.4283   44.2784 C.3     782      M_A    0.0000
   5477 O          64.5864   51.2207   44.4643 O.3     782      M_A    0.0000
   5478 H          64.8274   48.8508   43.7816 H       782      M_A    0.0000
   5479 H          63.5871   49.1544   42.5584 H       782      M_A    0.0000
   5480 H          62.6673   50.9558   43.6672 H       782      M_A    0.0000
   5481 H          62.9562   50.2821   45.2649 H       782      M_A    0.0000
   5482 C          64.9532   51.8886   43.2742 C.3     783      M_A    0.0000
   5483 C          65.5454   53.2677   43.5490 C.3     783      M_A    0.0000
   5484 O          66.9126   53.3156   43.1411 O.3     783      M_A    0.0000
   5485 H          65.6550   51.2615   42.7142 H       783      M_A    0.0000
   5486 H          64.0518   52.0055   42.6618 H       783      M_A    0.0000
   5487 H          64.9506   54.0434   43.0456 H       783      M_A    0.0000
   5488 H          65.5139   53.5021   44.6204 H       783      M_A    0.0000
   5489 C          67.2513   54.5826   42.6149 C.3     784      M_A    0.0000
   5490 C          68.4602   55.1920   43.3187 C.3     784      M_A    0.0000
   5491 O          69.5513   55.3314   42.4088 O.3     784      M_A    0.0000
   5492 H          67.4274   54.4869   41.5382 H       784      M_A    0.0000
   5493 H          66.3896   55.2458   42.7522 H       784      M_A    0.0000
   5494 H          68.1898   56.1577   43.7697 H       784      M_A    0.0000
   5495 H          68.7992   54.5514   44.1424 H       784      M_A    0.0000
   5496 C          70.5388   56.2060   42.9155 C.3     785      M_A    0.0000
   5497 C          71.4486   56.7440   41.8150 C.3     785      M_A    0.0000
   5498 O          71.7891   58.1069   42.0688 O.3     785      M_A    0.0000
   5499 H          70.0493   57.0220   43.4577 H       785      M_A    0.0000
   5500 H          71.1466   55.6468   43.6361 H       785      M_A    0.0000
   5501 H          72.3476   56.1172   41.7256 H       785      M_A    0.0000
   5502 H          70.9487   56.7066   40.8391 H       785      M_A    0.0000
   5503 C          72.3830   58.2632   43.3415 C.3     786      M_A    0.0000
   5504 C          73.7401   58.9559   43.2606 C.3     786      M_A    0.0000
   5505 O          73.6792   60.2481   43.8644 O.3     786      M_A    0.0000
   5506 H          71.6955   58.8152   43.9913 H       786      M_A    0.0000
   5507 H          72.5194   57.2657   43.7746 H       786      M_A    0.0000
   5508 H          74.5136   58.3312   43.7300 H       786      M_A    0.0000
   5509 H          74.0481   59.0953   42.2168 H       786      M_A    0.0000
   5510 C          74.5342   61.1647   43.2120 C.3     787      M_A    0.0000
   5511 C          74.5286   62.5341   43.8849 C.3     787      M_A    0.0000
   5512 O          75.8167   63.1423   43.7927 O.3     787      M_A    0.0000
   5513 H          75.5457   60.7462   43.1757 H       787      M_A    0.0000
   5514 H          74.1842   61.2756   42.1793 H       787      M_A    0.0000
   5515 H          73.7521   63.1725   43.4395 H       787      M_A    0.0000
   5516 H          74.2819   62.4469   44.9504 H       787      M_A    0.0000
   5517 C          75.8918   64.0311   42.6967 C.3     788      M_A    0.0000
   5518 C          77.0053   65.0602   42.8672 C.3     788      M_A    0.0000
   5519 O          78.0432   64.8374   41.9128 O.3     788      M_A    0.0000
   5520 H          76.0256   63.4528   41.7762 H       788      M_A    0.0000
   5521 H          74.9324   64.5558   42.6219 H       788      M_A    0.0000
   5522 H          76.5974   66.0779   42.7842 H       788      M_A    0.0000
   5523 H          77.4559   64.9894   43.8651 H       788      M_A    0.0000
   5524 C          79.1667   65.6551   42.1701 C.3     789      M_A    0.0000
   5525 C          79.9067   65.2323   43.4357 C.3     789      M_A    0.0000
   5526 O          81.2845   65.5970   43.3552 O.3     789      M_A    0.0000
   5527 H          79.8301   65.6352   41.2989 H       789      M_A    0.0000
   5528 H          78.8127   66.6850   42.2936 H       789      M_A    0.0000
   5529 H          79.4272   65.6740   44.3211 H       789      M_A    0.0000
   5530 H          79.8622   64.1445   43.5716 H       789      M_A    0.0000
   5531 C          81.5317   66.8299   44.0000 C.3     790      M_A    0.0000
   5532 C          83.0234   67.1322   44.1083 C.3     790      M_A    0.0000
   5533 O          83.3189   68.4054   43.5341 O.3     790      M_A    0.0000
   5534 H          81.0050   67.6259   43.4630 H       790      M_A    0.0000
   5535 H          81.1072   66.7736   45.0089 H       790      M_A    0.0000
   5536 H          83.3454   67.0828   45.1584 H       790      M_A    0.0000
   5537 H          83.6160   66.3830   43.5687 H       790      M_A    0.0000
   5538 C          82.6343   69.4455   44.2021 C.3     791      M_A    0.0000
   5539 C          83.5919   70.4145   44.8892 C.3     791      M_A    0.0000
   5540 O          84.1714   71.3056   43.9363 O.3     791      M_A    0.0000
   5541 H          81.9904   69.9671   43.4859 H       791      M_A    0.0000
   5542 H          81.9863   68.9902   44.9598 H       791      M_A    0.0000
   5543 H          83.0690   70.9647   45.6847 H       791      M_A    0.0000
   5544 H          84.4136   69.8751   45.3766 H       791      M_A    0.0000
   5545 C          85.0865   70.6366   43.0925 C.3     792      M_A    0.0000
   5546 C          85.6327   71.5501   41.9991 C.3     792      M_A    0.0000
   5547 O          86.9015   72.0824   42.3793 O.3     792      M_A    0.0000
   5548 H          85.8963   70.2212   43.7016 H       792      M_A    0.0000
   5549 H          84.5606   69.7973   42.6233 H       792      M_A    0.0000
   5550 H          85.6968   71.0052   41.0463 H       792      M_A    0.0000
   5551 H          84.9596   72.3987   41.8240 H       792      M_A    0.0000
   5552 C          87.4827   72.8321   41.3319 C.3     793      M_A    0.0000
   5553 C          87.5690   74.3178   41.6687 C.3     793      M_A    0.0000
   5554 O          88.8711   74.6463   42.1529 O.3     793      M_A    0.0000
   5555 H          88.4716   72.4204   41.1037 H       793      M_A    0.0000
   5556 H          86.8576   72.7064   40.4404 H       793      M_A    0.0000
   5557 H          87.3053   74.9223   40.7889 H       793      M_A    0.0000
   5558 H          86.8498   74.5850   42.4530 H       793      M_A    0.0000
   5559 C          88.8950   75.9303   42.7425 C.3     794      M_A    0.0000
   5560 C          89.9960   76.0604   43.7908 C.3     794      M_A    0.0000
   5561 O          90.7940   77.2167   43.5376 O.3     794      M_A    0.0000
   5562 H          89.0079   76.6831   41.9551 H       794      M_A    0.0000
   5563 H          87.9250   76.0978   43.2246 H       794      M_A    0.0000
   5564 H          89.5585   76.0894   44.7991 H       794      M_A    0.0000
   5565 H          90.6632   75.1897   43.7694 H       794      M_A    0.0000
   5566 C          90.1810   78.3877   44.0373 C.3     795      M_A    0.0000
   5567 C          91.1953   79.4935   44.3139 C.3     795      M_A    0.0000
   5568 O          90.9736   80.6047   43.4457 O.3     795      M_A    0.0000
   5569 H          89.4162   78.7213   43.3279 H       795      M_A    0.0000
   5570 H          89.6740   78.1293   44.9740 H       795      M_A    0.0000
   5571 H          91.1487   79.7957   45.3701 H       795      M_A    0.0000
   5572 H          92.2191   79.1396   44.1397 H       795      M_A    0.0000
   5573 C          92.0080   81.5612   43.5552 C.3     796      M_A    0.0000
   5574 C          91.6220   82.8984   42.9299 C.3     796      M_A    0.0000
   5575 O          91.3728   83.8717   43.9440 O.3     796      M_A    0.0000
   5576 H          92.2741   81.6805   44.6108 H       796      M_A    0.0000
   5577 H          92.8880   81.1670   43.0341 H       796      M_A    0.0000
   5578 H          92.4074   83.2344   42.2376 H       796      M_A    0.0000
   5579 H          90.7059   82.8032   42.3338 H       796      M_A    0.0000
   5580 C          92.5749   84.4420   44.4201 C.3     797      M_A    0.0000
   5581 C          92.6238   85.9502   44.1941 C.3     797      M_A    0.0000
   5582 O          92.1042   86.6434   45.3287 O.3     797      M_A    0.0000
   5583 H          92.6908   84.1974   45.4814 H       797      M_A    0.0000
   5584 H          93.4065   83.9754   43.8797 H       797      M_A    0.0000
   5585 H          93.6522   86.2670   43.9684 H       797      M_A    0.0000
   5586 H          92.0158   86.2372   43.3270 H       797      M_A    0.0000
   5587 C          91.2757   87.7208   44.9418 C.3     798      M_A    0.0000
   5588 C          91.5308   88.9707   45.7790 C.3     798      M_A    0.0000
   5589 O          92.2329   89.9506   45.0144 O.3     798      M_A    0.0000
   5590 H          91.4255   87.9218   43.8757 H       798      M_A    0.0000
   5591 H          90.2335   87.4099   45.0772 H       798      M_A    0.0000
   5592 H          90.5814   89.3693   46.1647 H       798      M_A    0.0000
   5593 H          92.1458   88.7364   46.6569 H       798      M_A    0.0000
   5594 C          92.6409   91.0389   45.8181 C.3     799      M_A    0.0000
   5595 C          93.9693   91.6290   45.3542 C.3     799      M_A    0.0000
   5596 O          93.9447   93.0531   45.4491 O.3     799      M_A    0.0000
   5597 H          91.8508   91.7973   45.8206 H       799      M_A    0.0000
   5598 H          92.7542   90.6750   46.8458 H       799      M_A    0.0000
   5599 H          94.7981   91.2036   45.9382 H       799      M_A    0.0000
   5600 H          94.1678   91.3730   44.3059 H       799      M_A    0.0000
   5601 C          93.1771   93.4846   46.5544 C.3     800      M_A    0.0000
   5602 C          93.1208   95.0061   46.6553 C.3     800      M_A    0.0000
   5603 O          91.7809   95.4434   46.8817 O.3     800      M_A    0.0000
   5604 H          92.1720   93.0559   46.4807 H       800      M_A    0.0000
   5605 H          93.6417   93.0859   47.4635 H       800      M_A    0.0000
   5606 H          93.7960   95.3591   47.4481 H       800      M_A    0.0000
   5607 H          93.4665   95.4743   45.7252 H       800      M_A    0.0000
   5608 C          91.7434   96.7793   47.3406 C.3     801      M_A    0.0000
   5609 C          90.3306   97.3551   47.3170 C.3     801      M_A    0.0000
   5610 O          90.1620   98.3108   48.3639 O.3     801      M_A    0.0000
   5611 H          92.1714   96.8234   48.3478 H       801      M_A    0.0000
   5612 H          92.3820   97.3797   46.6826 H       801      M_A    0.0000
   5613 H          90.1177   97.7979   46.3333 H       801      M_A    0.0000
   5614 H          89.5828   96.5667   47.4683 H       801      M_A    0.0000
   5615 C          90.0417   99.6225   47.8524 C.3     802      M_A    0.0000
   5616 C          89.1567  100.5023   48.7304 C.3     802      M_A    0.0000
   5617 O          89.6452  101.8435   48.7488 O.3     802      M_A    0.0000
   5618 H          91.0415  100.0552   47.7398 H       802      M_A    0.0000
   5619 H          89.5953   99.5552   46.8537 H       802      M_A    0.0000
   5620 H          88.1149  100.4609   48.3813 H       802      M_A    0.0000
   5621 H          89.1489  100.1413   49.7665 H       802      M_A    0.0000
   5622 C          88.6508  102.7617   48.3427 C.3     803      M_A    0.0000
   5623 C          88.5449  103.9508   49.2930 C.3     803      M_A    0.0000
   5624 O          88.3203  105.1566   48.5627 O.3     803      M_A    0.0000
   5625 H          88.8644  103.0907   47.3201 H       803      M_A    0.0000
   5626 H          87.6906  102.2336   48.3272 H       803      M_A    0.0000
   5627 H          87.7492  103.7766   50.0316 H       803      M_A    0.0000
   5628 H          89.4725  104.0806   49.8643 H       803      M_A    0.0000
   5629 C          87.8627  106.1943   49.4057 C.3     804      M_A    0.0000
   5630 C          88.0219  107.5688   48.7627 C.3     804      M_A    0.0000
   5631 O          88.6719  108.4689   49.6601 O.3     804      M_A    0.0000
   5632 H          86.8184  106.0021   49.6743 H       804      M_A    0.0000
   5633 H          88.4533  106.1640   50.3285 H       804      M_A    0.0000
   5634 H          88.5719  107.4828   47.8145 H       804      M_A    0.0000
   5635 H          87.0448  108.0014   48.5139 H       804      M_A    0.0000
   5636 C          88.4809  109.8141   49.2719 C.3     805      M_A    0.0000
   5637 C          89.8036  110.5541   49.0952 C.3     805      M_A    0.0000
   5638 O          89.7614  111.3844   47.9348 O.3     805      M_A    0.0000
   5639 H          87.8876  109.8398   48.3517 H       805      M_A    0.0000
   5640 H          87.8983  110.3116   50.0558 H       805      M_A    0.0000
   5641 H          90.0347  111.1388   49.9972 H       805      M_A    0.0000
   5642 H          90.6336  109.8486   48.9644 H       805      M_A    0.0000
   5643 C          88.8710  112.4682   48.1065 C.3     806      M_A    0.0000
   5644 C          89.3163  113.4055   49.2251 C.3     806      M_A    0.0000
   5645 O          89.8730  114.6029   48.6829 O.3     806      M_A    0.0000
   5646 H          88.7737  113.0046   47.1566 H       806      M_A    0.0000
   5647 H          87.8861  112.0585   48.3581 H       806      M_A    0.0000
   5648 H          88.4725  113.6245   49.8951 H       806      M_A    0.0000
   5649 H          90.0891  112.9359   49.8464 H       806      M_A    0.0000
   5650 C          88.8698  115.5556   48.3951 C.3     807      M_A    0.0000
   5651 C          89.4296  116.9728   48.3160 C.3     807      M_A    0.0000
   5652 O          89.9178  117.2455   47.0026 O.3     807      M_A    0.0000
   5653 H          88.3685  115.2760   47.4623 H       807      M_A    0.0000
   5654 H          88.1245  115.5130   49.1976 H       807      M_A    0.0000
   5655 H          88.6627  117.7011   48.6167 H       807      M_A    0.0000
   5656 H          90.2679  117.1032   49.0117 H       807      M_A    0.0000
   5657 C          90.7011  118.4214   46.9757 C.3     808      M_A    0.0000
   5658 C          92.1479  118.1569   47.3817 C.3     808      M_A    0.0000
   5659 O          93.0441  118.6243   46.3735 O.3     808      M_A    0.0000
   5660 H          90.6458  118.8648   45.9758 H       808      M_A    0.0000
   5661 H          90.2603  119.1361   47.6801 H       808      M_A    0.0000
   5662 H          92.3609  118.6243   48.3538 H       808      M_A    0.0000
   5663 H          92.3295  117.0825   47.5101 H       808      M_A    0.0000
   5664 C          94.3637  118.1755   46.6060 C.3     809      M_A    0.0000
   5665 C          95.3943  119.0040   45.8448 C.3     809      M_A    0.0000
   5666 O          96.1080  119.8587   46.7381 O.3     809      M_A    0.0000
   5667 H          94.5617  118.1908   47.6831 H       809      M_A    0.0000
   5668 H          94.4292  117.1338   46.2717 H       809      M_A    0.0000
   5669 H          96.0777  118.3441   45.2912 H       809      M_A    0.0000
   5670 H          94.9092  119.6428   45.0962 H       809      M_A    0.0000
   5671 C          96.8116  120.8655   46.0393 C.3     810      M_A    0.0000
   5672 C          96.9765  122.1337   46.8714 C.3     810      M_A    0.0000
   5673 O          98.1569  122.8367   46.4838 O.3     810      M_A    0.0000
   5674 H          97.7833  120.4698   45.7249 H       810      M_A    0.0000
   5675 H          96.2434  121.1070   45.1337 H       810      M_A    0.0000
   5676 H          96.0838  122.7686   46.7767 H       810      M_A    0.0000
   5677 H          97.0722  121.8939   47.9378 H       810      M_A    0.0000
   5678 C          98.2883  122.8912   45.0779 C.3     811      M_A    0.0000
   5679 C          97.9462  124.2705   44.5223 C.3     811      M_A    0.0000
   5680 O          99.0583  125.1550   44.6589 O.3     811      M_A    0.0000
   5681 H          99.3062  122.5954   44.8023 H       811      M_A    0.0000
   5682 H          97.6008  122.1547   44.6464 H       811      M_A    0.0000
   5683 H          97.6269  124.1886   43.4734 H       811      M_A    0.0000
   5684 H          97.1039  124.7152   45.0669 H       811      M_A    0.0000
   5685 C          98.6667  126.5048   44.5120 C.3     812      M_A    0.0000
   5686 C          97.8701  127.0055   45.7132 C.3     812      M_A    0.0000
   5687 O          98.4687  128.1826   46.2553 O.3     812      M_A    0.0000
   5688 H          99.5578  127.1192   44.3447 H       812      M_A    0.0000
   5689 H          98.0404  126.5783   43.6156 H       812      M_A    0.0000
   5690 H          96.8238  127.1845   45.4267 H       812      M_A    0.0000
   5691 H          97.8466  126.2520   46.5103 H       812      M_A    0.0000
   5692 C          97.8396  129.3522   45.7722 C.3     813      M_A    0.0000
   5693 C          98.2128  130.5847   46.5907 C.3     813      M_A    0.0000
   5694 O          99.3373  131.2476   46.0129 O.3     813      M_A    0.0000
   5695 H          98.0971  129.4862   44.7161 H       813      M_A    0.0000
   5696 H          96.7557  129.2013   45.8326 H       813      M_A    0.0000
   5697 H          97.3495  131.2605   46.6740 H       813      M_A    0.0000
   5698 H          98.4865  130.3067   47.6162 H       813      M_A    0.0000
   5699 C          99.8630  132.2285   46.8836 C.3     814      M_A    0.0000
   5700 C         101.3525  132.4638   46.6510 C.3     814      M_A    0.0000
   5701 O         101.5861  133.8046   46.2201 O.3     814      M_A    0.0000
   5702 H          99.2928  133.1558   46.7632 H       814      M_A    0.0000
   5703 H          99.7156  131.8799   47.9123 H       814      M_A    0.0000
   5704 H         101.9204  132.2324   47.5637 H       814      M_A    0.0000
   5705 H         101.7383  131.7960   45.8706 H       814      M_A    0.0000
   5706 C         102.9663  134.0648   46.0646 C.3     815      M_A    0.0000
   5707 C         103.2439  135.5369   45.7747 C.3     815      M_A    0.0000
   5708 O         103.7249  136.1957   46.9462 O.3     815      M_A    0.0000
   5709 H         103.4963  133.7322   46.9635 H       815      M_A    0.0000
   5710 H         103.3300  133.4632   45.2237 H       815      M_A    0.0000
   5711 H         103.9554  135.6321   44.9418 H       815      M_A    0.0000
   5712 H         102.3292  136.0541   45.4591 H       815      M_A    0.0000
   5713 C         103.8038  137.5940   46.7578 C.3     816      M_A    0.0000
   5714 C         104.0704  138.3353   48.0645 C.3     816      M_A    0.0000
   5715 O         105.3690  138.9280   48.0477 O.3     816      M_A    0.0000
   5716 H         104.5787  137.8112   46.0149 H       816      M_A    0.0000
   5717 H         102.8461  137.9332   46.3467 H       816      M_A    0.0000
   5718 H         103.2891  139.0889   48.2395 H       816      M_A    0.0000
   5719 H         104.0336  137.6490   48.9197 H       816      M_A    0.0000
   5720 C         106.3563  138.0235   48.4993 C.3     817      M_A    0.0000
   5721 C         107.1404  138.5752   49.6863 C.3     817      M_A    0.0000
   5722 O         107.2600  137.5872   50.7098 O.3     817      M_A    0.0000
   5723 H         105.8795  137.0697   48.7494 H       817      M_A    0.0000
   5724 H         107.0497  137.8402   47.6706 H       817      M_A    0.0000
   5725 H         108.1273  138.9310   49.3568 H       817      M_A    0.0000
   5726 H         106.6308  139.4423   50.1246 H       817      M_A    0.0000
   5727 C         108.3113  136.6835   50.4362 C.3     818      M_A    0.0000
   5728 C         108.9209  136.1088   51.7115 C.3     818      M_A    0.0000
   5729 O         109.6159  134.8940   51.4306 O.3     818      M_A    0.0000
   5730 H         107.9376  135.8877   49.7832 H       818      M_A    0.0000
   5731 H         109.0879  137.2267   49.8856 H       818      M_A    0.0000
   5732 H         109.5838  136.8490   52.1823 H       818      M_A    0.0000
   5733 H         108.1424  135.8788   52.4496 H       818      M_A    0.0000
   5734 C         110.8752  135.1432   50.8399 C.3     819      M_A    0.0000
   5735 C         112.0070  135.1029   51.8623 C.3     819      M_A    0.0000
   5736 O         112.9230  134.0523   51.5538 O.3     819      M_A    0.0000
   5737 H         111.0426  134.4184   50.0361 H       819      M_A    0.0000
   5738 H         110.8430  136.1402   50.3857 H       819      M_A    0.0000
   5739 H         112.5153  136.0770   51.9045 H       819      M_A    0.0000
   5740 H         111.6184  134.9143   52.8709 H       819      M_A    0.0000
   5741 C         113.8612  133.8623   52.5933 C.3     820      M_A    0.0000
   5742 C         113.2513  133.1432   53.7929 C.3     820      M_A    0.0000
   5743 O         114.2324  132.3368   54.4449 O.3     820      M_A    0.0000
   5744 H         114.7238  133.3137   52.2002 H       820      M_A    0.0000
   5745 H         114.2140  134.8494   52.9134 H       820      M_A    0.0000
   5746 H         112.8073  133.8716   54.4865 H       820      M_A    0.0000
   5747 H         112.4358  132.4793   53.4797 H       820      M_A    0.0000
   5748 C         115.0063  133.0958   55.3515 C.3     821      M_A    0.0000
   5749 C         114.1876  133.5693   56.5488 C.3     821      M_A    0.0000
   5750 O         115.0383  133.8302   57.6651 O.3     821      M_A    0.0000
   5751 H         115.8675  132.4999   55.6722 H       821      M_A    0.0000
   5752 H         115.3903  133.9715   54.8158 H       821      M_A    0.0000
   5753 H         113.5989  134.4577   56.2785 H       821      M_A    0.0000
   5754 H         113.4654  132.8035   56.8581 H       821      M_A    0.0000
   5755 C         115.7798  132.6838   58.0294 C.3     822      M_A    0.0000
   5756 C         116.0944  132.6539   59.5221 C.3     822      M_A    0.0000
   5757 O         116.1037  131.3105   60.0049 O.3     822      M_A    0.0000
   5758 H         115.2273  131.7889   57.7239 H       822      M_A    0.0000
   5759 H         116.7215  132.6994   57.4688 H       822      M_A    0.0000
   5760 H         117.0528  133.1559   59.7181 H       822      M_A    0.0000
   5761 H         115.3363  133.2033   60.0942 H       822      M_A    0.0000
   5762 C         116.2099  131.2677   61.4133 C.3     823      M_A    0.0000
   5763 C         116.9781  130.0402   61.8942 C.3     823      M_A    0.0000
   5764 O         118.0113  130.4207   62.8028 O.3     823      M_A    0.0000
   5765 H         116.6815  132.1918   61.7644 H       823      M_A    0.0000
   5766 H         115.1954  131.2355   61.8269 H       823      M_A    0.0000
   5767 H         116.2888  129.3167   62.3527 H       823      M_A    0.0000
   5768 H         117.4549  129.5212   61.0533 H       823      M_A    0.0000
   5769 C         118.5690  129.2963   63.4520 C.3     824      M_A    0.0000
   5770 C         119.7306  129.6779   64.3649 C.3     824      M_A    0.0000
   5771 O         119.3898  129.4466   65.7317 O.3     824      M_A    0.0000
   5772 H         117.7814  128.7786   64.0099 H       824      M_A    0.0000
   5773 H         118.9352  128.6091   62.6807 H       824      M_A    0.0000
   5774 H         120.6359  129.1234   64.0791 H       824      M_A    0.0000
   5775 H         119.9764  130.7424   64.2632 H       824      M_A    0.0000
   5776 C         120.2341  130.1691   66.6047 C.3     825      M_A    0.0000
   5777 C         121.1169  129.2486   67.4423 C.3     825      M_A    0.0000
   5778 O         122.4750  129.6868   67.4043 O.3     825      M_A    0.0000
   5779 H         120.8380  130.8703   66.0188 H       825      M_A    0.0000
   5780 H         119.5994  130.7589   67.2759 H       825      M_A    0.0000
   5781 H         120.7415  129.1988   68.4745 H       825      M_A    0.0000
   5782 H         121.0919  128.2221   67.0556 H       825      M_A    0.0000
   5783 C         123.2389  129.0932   68.4343 C.3     826      M_A    0.0000
   5784 C         124.7310  129.3693   68.2744 C.3     826      M_A    0.0000
   5785 O         125.3330  129.6174   69.5448 O.3     826      M_A    0.0000
   5786 H         122.8723  129.4507   69.4024 H       826      M_A    0.0000
   5787 H         123.0726  128.0106   68.3961 H       826      M_A    0.0000
   5788 H         125.2189  128.5303   67.7577 H       826      M_A    0.0000
   5789 H         124.9016  130.2561   67.6512 H       826      M_A    0.0000
   5790 C         126.6126  129.0246   69.6354 C.3     827      M_A    0.0000
   5791 C         127.6993  129.9095   69.0321 C.3     827      M_A    0.0000
   5792 O         128.9610  129.6395   69.6429 O.3     827      M_A    0.0000
   5793 H         126.8267  128.7953   70.6847 H       827      M_A    0.0000
   5794 H         126.5837  128.0755   69.0879 H       827      M_A    0.0000
   5795 H         127.7437  129.7668   67.9428 H       827      M_A    0.0000
   5796 H         127.4762  130.9714   69.1948 H       827      M_A    0.0000
   5797 C         129.3923  128.3203   69.3774 C.3     828      M_A    0.0000
   5798 C         130.7311  128.0096   70.0402 C.3     828      M_A    0.0000
   5799 O         130.8515  126.6099   70.2934 O.3     828      M_A    0.0000
   5800 H         128.6174  127.6184   69.7038 H       828      M_A    0.0000
   5801 H         129.5007  128.2132   68.2921 H       828      M_A    0.0000
   5802 H         131.5582  128.3754   69.4148 H       828      M_A    0.0000
   5803 H         130.8216  128.5267   71.0037 H       828      M_A    0.0000
   5804 C         129.9171  125.8655   69.5384 C.3     829      M_A    0.0000
   5805 C         130.5560  124.6521   68.8694 C.3     829      M_A    0.0000
   5806 O         130.1252  123.4471   69.5021 O.3     829      M_A    0.0000
   5807 H         129.0883  125.5674   70.1893 H       829      M_A    0.0000
   5808 H         129.5093  126.5241   68.7631 H       829      M_A    0.0000
   5809 H         130.3232  124.6448   67.7948 H       829      M_A    0.0000
   5810 H         131.6497  124.6913   68.9474 H       829      M_A    0.0000
   5811 C         129.3126  122.6737   68.6429 C.3     830      M_A    0.0000
   5812 C         129.5628  121.1777   68.8086 C.3     830      M_A    0.0000
   5813 O         128.4656  120.5580   69.4795 O.3     830      M_A    0.0000
   5814 H         128.2616  122.9214   68.8261 H       830      M_A    0.0000
   5815 H         129.5455  122.9599   67.6108 H       830      M_A    0.0000
   5816 H         129.7468  120.7129   67.8293 H       830      M_A    0.0000
   5817 H         130.4617  120.9943   69.4105 H       830      M_A    0.0000
   5818 C         127.7465  119.7030   68.6142 C.3     831      M_A    0.0000
   5819 C         127.4757  118.3413   69.2471 C.3     831      M_A    0.0000
   5820 O         126.1174  118.2503   69.6766 O.3     831      M_A    0.0000
   5821 H         126.8132  120.1949   68.3202 H       831      M_A    0.0000
   5822 H         128.3456  119.5598   67.7076 H       831      M_A    0.0000
   5823 H         127.7262  117.5375   68.5399 H       831      M_A    0.0000
   5824 H         128.1101  118.1850   70.1285 H       831      M_A    0.0000
   5825 C         125.5034  117.0688   69.2033 C.3     832      M_A    0.0000
   5826 C         124.2375  116.7274   69.9837 C.3     832      M_A    0.0000
   5827 O         123.0762  117.0243   69.2083 O.3     832      M_A    0.0000
   5828 H         125.2911  117.1798   68.1346 H       832      M_A    0.0000
   5829 H         126.2210  116.2480   69.3151 H       832      M_A    0.0000
   5830 H         124.2541  115.6717   70.2908 H       832      M_A    0.0000
   5831 H         124.1750  117.3160   70.9075 H       832      M_A    0.0000
   5832 C         122.3077  118.0517   69.8005 C.3     833      M_A    0.0000
   5833 C         123.1802  119.1715   70.3600 C.3     833      M_A    0.0000
   5834 O         122.3698  120.2337   70.8627 O.3     833      M_A    0.0000
   5835 H         121.5961  118.4364   69.0622 H       833      M_A    0.0000
   5836 H         121.7290  117.6101   70.6199 H       833      M_A    0.0000
   5837 H         123.8507  118.7777   71.1374 H       833      M_A    0.0000
   5838 H         123.8267  119.5924   69.5799 H       833      M_A    0.0000
   5839 C         121.2561  119.7401   71.5789 C.3     834      M_A    0.0000
   5840 C         121.6729  118.8549   72.7497 C.3     834      M_A    0.0000
   5841 O         121.7547  119.6205   73.9518 O.3     834      M_A    0.0000
   5842 H         120.6472  120.5846   71.9190 H       834      M_A    0.0000
   5843 H         120.6456  119.1487   70.8870 H       834      M_A    0.0000
   5844 H         120.9726  118.0142   72.8580 H       834      M_A    0.0000
   5845 H         122.6613  118.4119   72.5745 H       834      M_A    0.0000
   5846 C         122.3538  118.8810   74.9963 C.3     835      M_A    0.0000
   5847 C         123.8454  118.6614   74.7620 C.3     835      M_A    0.0000
   5848 O         124.6076  119.2197   75.8322 O.3     835      M_A    0.0000
   5849 H         122.1743  119.3950   75.9466 H       835      M_A    0.0000
   5850 H         121.8557  117.9060   75.0476 H       835      M_A    0.0000
   5851 H         124.0563  117.5895   74.6377 H       835      M_A    0.0000
   5852 H         124.1734  119.1494   73.8357 H       835      M_A    0.0000
   5853 C         124.9913  118.2302   76.7652 C.3     836      M_A    0.0000
   5854 C         125.9964  117.2448   76.1762 C.3     836      M_A    0.0000
   5855 O         126.4008  116.2938   77.1611 O.3     836      M_A    0.0000
   5856 H         125.3938  118.7186   77.6590 H       836      M_A    0.0000
   5857 H         124.0907  117.6818   77.0643 H       836      M_A    0.0000
   5858 H         125.5687  116.7486   75.2932 H       836      M_A    0.0000
   5859 H         126.8991  117.7640   75.8308 H       836      M_A    0.0000
   5860 C         126.1703  114.9691   76.7263 C.3     837      M_A    0.0000
   5861 C         127.1391  114.5496   75.6247 C.3     837      M_A    0.0000
   5862 O         127.5769  113.2062   75.8281 O.3     837      M_A    0.0000
   5863 H         126.2340  114.2944   77.5867 H       837      M_A    0.0000
   5864 H         125.1469  114.9152   76.3379 H       837      M_A    0.0000
   5865 H         126.6684  114.6718   74.6386 H       837      M_A    0.0000
   5866 H         128.0308  115.1888   75.6217 H       837      M_A    0.0000
   5867 C         128.4390  113.1064   76.9433 C.3     838      M_A    0.0000
   5868 C         128.6955  111.6563   77.3428 C.3     838      M_A    0.0000
   5869 O         129.8327  111.1403   76.6512 O.3     838      M_A    0.0000
   5870 H         129.3763  113.6261   76.7181 H       838      M_A    0.0000
   5871 H         127.9649  113.6269   77.7833 H       838      M_A    0.0000
   5872 H         128.8212  111.5793   78.4323 H       838      M_A    0.0000
   5873 H         127.8387  111.0209   77.0859 H       838      M_A    0.0000
   5874 C         129.6378  109.7944   76.2671 C.3     839      M_A    0.0000
   5875 C         130.3892  108.8241   77.1737 C.3     839      M_A    0.0000
   5876 O         129.5074  107.8159   77.6677 O.3     839      M_A    0.0000
   5877 H         128.5644  109.5771   76.2588 H       839      M_A    0.0000
   5878 H         130.0072  109.6798   75.2415 H       839      M_A    0.0000
   5879 H         131.2397  108.3824   76.6347 H       839      M_A    0.0000
   5880 H         130.8117  109.3451   78.0419 H       839      M_A    0.0000
   5881 C         128.5088  107.4933   76.7214 C.3     840      M_A    0.0000
   5882 C         128.2186  105.9958   76.6808 C.3     840      M_A    0.0000
   5883 O         126.9442  105.7171   77.2605 O.3     840      M_A    0.0000
   5884 H         127.6030  108.0654   76.9487 H       840      M_A    0.0000
   5885 H         128.8637  107.8125   75.7348 H       840      M_A    0.0000
   5886 H         128.2773  105.6258   75.6471 H       840      M_A    0.0000
   5887 H         128.9690  105.4350   77.2519 H       840      M_A    0.0000
   5888 C         126.6257  104.3431   77.1733 C.3     841      M_A    0.0000
   5889 C         127.1727  103.5508   78.3570 C.3     841      M_A    0.0000
   5890 O         126.3465  102.4180   78.6257 O.3     841      M_A    0.0000
   5891 H         125.5391  104.2326   77.0919 H       841      M_A    0.0000
   5892 H         127.0687  103.9524   76.2500 H       841      M_A    0.0000
   5893 H         128.2128  103.2504   78.1645 H       841      M_A    0.0000
   5894 H         127.1927  104.1656   79.2655 H       841      M_A    0.0000
   5895 C         126.3781  101.4904   77.5601 C.3     842      M_A    0.0000
   5896 C         126.0099  100.0812   78.0146 C.3     842      M_A    0.0000
   5897 O         124.9155   99.5781   77.2484 O.3     842      M_A    0.0000
   5898 H         125.7093  101.8367   76.7649 H       842      M_A    0.0000
   5899 H         127.3962  101.4775   77.1546 H       842      M_A    0.0000
   5900 H         126.8849   99.4191   77.9446 H       842      M_A    0.0000
   5901 H         125.7032  100.0760   79.0681 H       842      M_A    0.0000
   5902 C         124.8434   98.1683   77.3134 C.3     843      M_A    0.0000
   5903 C         124.6434   97.6688   78.7412 C.3     843      M_A    0.0000
   5904 O         123.7150   96.5847   78.7667 O.3     843      M_A    0.0000
   5905 H         124.0387   97.8210   76.6567 H       843      M_A    0.0000
   5906 H         125.7855   97.7645   76.9252 H       843      M_A    0.0000
   5907 H         125.6087   97.3791   79.1807 H       843      M_A    0.0000
   5908 H         124.2391   98.4626   79.3817 H       843      M_A    0.0000
   5909 C         123.9482   95.6791   77.7073 C.3     844      M_A    0.0000
   5910 C         123.9341   94.2280   78.1787 C.3     844      M_A    0.0000
   5911 O         122.6039   93.7102   78.1650 O.3     844      M_A    0.0000
   5912 H         123.2026   95.8472   76.9229 H       844      M_A    0.0000
   5913 H         124.9330   95.9042   77.2821 H       844      M_A    0.0000
   5914 H         124.6062   93.6201   77.5561 H       844      M_A    0.0000
   5915 H         124.3081   94.1456   79.2069 H       844      M_A    0.0000
   5916 C         122.5753   92.3478   78.5390 C.3     845      M_A    0.0000
   5917 C         121.2970   91.9850   79.2890 C.3     845      M_A    0.0000
   5918 O         120.4258   91.2228   78.4536 O.3     845      M_A    0.0000
   5919 H         122.6975   91.7288   77.6437 H       845      M_A    0.0000
   5920 H         123.4351   92.1595   79.1921 H       845      M_A    0.0000
   5921 H         121.5405   91.4421   80.2136 H       845      M_A    0.0000
   5922 H         120.7523   92.8867   79.5956 H       845      M_A    0.0000
   5923 C         119.6585   90.3056   79.2066 C.3     846      M_A    0.0000
   5924 C         118.2859   90.0604   78.5870 C.3     846      M_A    0.0000
   5925 O         118.0551   88.6617   78.4195 O.3     846      M_A    0.0000
   5926 H         120.2189   89.3702   79.3089 H       846      M_A    0.0000
   5927 H         119.5246   90.7233   80.2111 H       846      M_A    0.0000
   5928 H         117.5027   90.5239   79.2040 H       846      M_A    0.0000
   5929 H         118.2136   90.5262   77.5963 H       846      M_A    0.0000
   5930 C         116.9945   88.4167   77.5183 C.3     847      M_A    0.0000
   5931 C         116.6564   86.9322   77.4194 C.3     847      M_A    0.0000
   5932 O         115.5658   86.6087   78.2819 O.3     847      M_A    0.0000
   5933 H         116.1213   89.0014   77.8268 H       847      M_A    0.0000
   5934 H         117.3023   88.7769   76.5299 H       847      M_A    0.0000
   5935 H         116.4354   86.6619   76.3768 H       847      M_A    0.0000
   5936 H         117.5103   86.3139   77.7236 H       847      M_A    0.0000
   5937 C         115.6733   85.2905   78.7794 C.3     848      M_A    0.0000
   5938 C         114.3692   84.8050   79.4055 C.3     848      M_A    0.0000
   5939 O         114.3102   83.3787   79.3964 O.3     848      M_A    0.0000
   5940 H         115.9933   84.6275   77.9685 H       848      M_A    0.0000
   5941 H         116.4585   85.2818   79.5441 H       848      M_A    0.0000
   5942 H         114.2667   85.2030   80.4253 H       848      M_A    0.0000
   5943 H         113.5025   85.1732   78.8425 H       848      M_A    0.0000
   5944 C         115.0341   82.8243   80.4760 C.3     849      M_A    0.0000
   5945 C         114.6975   81.3526   80.6974 C.3     849      M_A    0.0000
   5946 O         115.8763   80.6114   81.0120 O.3     849      M_A    0.0000
   5947 H         116.1056   82.9619   80.2960 H       849      M_A    0.0000
   5948 H         114.7749   83.3871   81.3800 H       849      M_A    0.0000
   5949 H         113.9389   81.2514   81.4869 H       849      M_A    0.0000
   5950 H         114.2621   80.9091   79.7932 H       849      M_A    0.0000
   5951 C         116.7243   80.4870   79.8885 C.3     850      M_A    0.0000
   5952 C         117.5245   79.1881   79.9142 C.3     850      M_A    0.0000
   5953 O         116.7073   78.0887   79.5125 O.3     850      M_A    0.0000
   5954 H         116.1225   80.5626   78.9765 H       850      M_A    0.0000
   5955 H         117.4211   81.3329   79.8969 H       850      M_A    0.0000
   5956 H         118.4152   79.2784   79.2759 H       850      M_A    0.0000
   5957 H         117.8909   78.9727   80.9257 H       850      M_A    0.0000
   5958 C         115.7365   77.7807   80.4921 C.3     851      M_A    0.0000
   5959 C         115.7865   76.3137   80.9086 C.3     851      M_A    0.0000
   5960 O         115.9554   76.2000   82.3215 O.3     851      M_A    0.0000
   5961 H         115.8768   78.4414   81.3543 H       851      M_A    0.0000
   5962 H         114.7492   77.9952   80.0673 H       851      M_A    0.0000
   5963 H         114.8792   75.7923   80.5711 H       851      M_A    0.0000
   5964 H         116.6318   75.7995   80.4343 H       851      M_A    0.0000
   5965 C         116.1882   74.8610   82.7085 C.3     852      M_A    0.0000
   5966 C         117.5586   74.3633   82.2586 C.3     852      M_A    0.0000
   5967 O         117.9338   73.1981   82.9931 O.3     852      M_A    0.0000
   5968 H         116.0746   74.7780   83.7947 H       852      M_A    0.0000
   5969 H         115.4150   74.2372   82.2457 H       852      M_A    0.0000
   5970 H         117.5556   74.1700   81.1762 H       852      M_A    0.0000
   5971 H         118.3295   75.1242   82.4335 H       852      M_A    0.0000
   5972 C         117.1369   72.0857   82.6406 C.3     853      M_A    0.0000
   5973 C         117.6339   70.7957   83.2864 C.3     853      M_A    0.0000
   5974 O         116.5377   70.0361   83.7954 O.3     853      M_A    0.0000
   5975 H         116.0966   72.2900   82.9154 H       853      M_A    0.0000
   5976 H         117.1762   71.9747   81.5510 H       853      M_A    0.0000
   5977 H         118.2235   70.2125   82.5644 H       853      M_A    0.0000
   5978 H         118.3035   71.0109   84.1285 H       853      M_A    0.0000
   5979 C         116.9827   68.9321   84.5569 C.3     854      M_A    0.0000
   5980 C         116.3560   67.6219   84.0890 C.3     854      M_A    0.0000
   5981 O         117.2516   66.5322   84.3088 O.3     854      M_A    0.0000
   5982 H         118.0760   68.8851   84.5130 H       854      M_A    0.0000
   5983 H         116.7001   69.1071   85.6013 H       854      M_A    0.0000
   5984 H         115.3947   67.4583   84.5970 H       854      M_A    0.0000
   5985 H         116.1351   67.6540   83.0148 H       854      M_A    0.0000
   5986 C         116.7716   65.3412   83.7188 C.3     855      M_A    0.0000
   5987 C         117.4151   64.0990   84.3278 C.3     855      M_A    0.0000
   5988 O         116.4146   63.1672   84.7385 O.3     855      M_A    0.0000
   5989 H         115.6811   65.3090   83.8150 H       855      M_A    0.0000
   5990 H         117.0091   65.3755   82.6494 H       855      M_A    0.0000
   5991 H         118.1150   63.6445   83.6119 H       855      M_A    0.0000
   5992 H         118.0066   64.3580   85.2148 H       855      M_A    0.0000
   5993 C         116.9633   61.8846   84.9632 C.3     856      M_A    0.0000
   5994 C         118.1342   61.9243   85.9407 C.3     856      M_A    0.0000
   5995 O         118.1571   60.7434   86.7425 O.3     856      M_A    0.0000
   5996 H         116.1731   61.2153   85.3199 H       856      M_A    0.0000
   5997 H         117.3174   61.4963   84.0014 H       856      M_A    0.0000
   5998 H         119.0798   62.0556   85.3951 H       856      M_A    0.0000
   5999 H         118.0492   62.7813   86.6206 H       856      M_A    0.0000
   6000 C         118.6202   59.6285   86.0079 C.3     857      M_A    0.0000
   6001 C         119.6666   58.8282   86.7778 C.3     857      M_A    0.0000
   6002 O         119.0432   57.8029   87.5512 O.3     857      M_A    0.0000
   6003 H         117.7654   59.0010   85.7340 H       857      M_A    0.0000
   6004 H         119.0699   59.9996   85.0799 H       857      M_A    0.0000
   6005 H         120.4102   58.4097   86.0843 H       857      M_A    0.0000
   6006 H         120.2209   59.4722   87.4720 H       857      M_A    0.0000
   6007 C         119.8940   56.6859   87.7107 C.3     858      M_A    0.0000
   6008 C         120.3280   56.4973   89.1613 C.3     858      M_A    0.0000
   6009 O         119.3189   55.8091   89.9002 O.3     858      M_A    0.0000
   6010 H         119.3863   55.7929   87.3307 H       858      M_A    0.0000
   6011 H         120.7842   56.8493   87.0927 H       858      M_A    0.0000
   6012 H         121.2885   55.9640   89.2038 H       858      M_A    0.0000
   6013 H         120.4912   57.4654   89.6513 H       858      M_A    0.0000
   6014 C         118.4055   56.7105   90.4917 C.3     859      M_A    0.0000
   6015 C         117.3203   55.9897   91.2860 C.3     859      M_A    0.0000
   6016 O         117.3316   56.4148   92.6487 O.3     859      M_A    0.0000
   6017 H         118.9569   57.4143   91.1243 H       859      M_A    0.0000
   6018 H         117.9330   57.2872   89.6883 H       859      M_A    0.0000
   6019 H         116.3370   56.1568   90.8232 H       859      M_A    0.0000
   6020 H         117.4837   54.9048   91.2790 H       859      M_A    0.0000
   6021 C         116.1097   56.1178   93.2934 C.3     860      M_A    0.0000
   6022 C         115.6864   54.6673   93.0814 C.3     860      M_A    0.0000
   6023 O         114.5379   54.3605   93.8717 O.3     860      M_A    0.0000
   6024 H         116.2022   56.3509   94.3595 H       860      M_A    0.0000
   6025 H         115.3396   56.7765   92.8758 H       860      M_A    0.0000
   6026 H         115.4997   54.4785   92.0145 H       860      M_A    0.0000
   6027 H         116.4853   53.9775   93.3812 H       860      M_A    0.0000
   6028 C         113.7173   53.3989   93.2401 C.3     861      M_A    0.0000
   6029 C         112.4879   53.0552   94.0760 C.3     861      M_A    0.0000
   6030 O         111.3997   52.6766   93.2333 O.3     861      M_A    0.0000
   6031 H         113.4311   53.7686   92.2496 H       861      M_A    0.0000
   6032 H         114.3130   52.4904   93.0954 H       861      M_A    0.0000
   6033 H         112.7296   52.2618   94.7978 H       861      M_A    0.0000
   6034 H         112.1606   53.9199   94.6667 H       861      M_A    0.0000
   6035 C         111.1353   51.2912   93.3209 C.3     862      M_A    0.0000
   6036 C         109.6414   50.9968   93.4188 C.3     862      M_A    0.0000
   6037 O         109.3229   49.7894   92.7270 O.3     862      M_A    0.0000
   6038 H         111.5819   50.7869   92.4574 H       862      M_A    0.0000
   6039 H         111.6316   50.9097   94.2207 H       862      M_A    0.0000
   6040 H         109.3326   50.9471   94.4729 H       862      M_A    0.0000
   6041 H         109.0519   51.8019   92.9627 H       862      M_A    0.0000
   6042 C         108.5220   48.9356   93.5186 C.3     863      M_A    0.0000
   6043 C         107.2573   49.6309   94.0139 C.3     863      M_A    0.0000
   6044 O         106.1091   48.8216   93.7598 O.3     863      M_A    0.0000
   6045 H         108.2790   48.0370   92.9415 H       863      M_A    0.0000
   6046 H         109.1168   48.6226   94.3844 H       863      M_A    0.0000
   6047 H         107.3495   49.8696   95.0832 H       863      M_A    0.0000
   6048 H         107.1066   50.5867   93.4967 H       863      M_A    0.0000
   6049 C         105.8326   47.9605   94.8456 C.3     864      M_A    0.0000
   6050 C         104.6071   47.0885   94.5893 C.3     864      M_A    0.0000
   6051 O         104.8415   45.7525   95.0343 O.3     864      M_A    0.0000
   6052 H         106.7174   47.3484   95.0506 H       864      M_A    0.0000
   6053 H         105.6473   48.5816   95.7295 H       864      M_A    0.0000
   6054 H         103.7231   47.5233   95.0776 H       864      M_A    0.0000
   6055 H         104.3755   47.0420   93.5178 H       864      M_A    0.0000
   6056 C         103.6348   45.0259   95.1475 C.3     865      M_A    0.0000
   6057 C         103.8681   43.5182   95.1239 C.3     865      M_A    0.0000
   6058 O         103.6118   42.9519   96.4089 O.3     865      M_A    0.0000
   6059 H         103.1182   45.3316   96.0636 H       865      M_A    0.0000
   6060 H         102.9961   45.2991   94.2998 H       865      M_A    0.0000
   6061 H         103.2446   43.0498   94.3488 H       865      M_A    0.0000
   6062 H         104.9085   43.2860   94.8642 H       865      M_A    0.0000
   6063 C         104.0000   41.5942   96.4626 C.3     866      M_A    0.0000
   6064 C         105.4536   41.3957   96.0434 C.3     866      M_A    0.0000
   6065 O         106.0016   40.2364   96.6708 O.3     866      M_A    0.0000
   6066 H         103.8246   41.2121   97.4739 H       866      M_A    0.0000
   6067 H         103.3538   41.0316   95.7790 H       866      M_A    0.0000
   6068 H         105.5271   41.3301   94.9483 H       866      M_A    0.0000
   6069 H         106.0691   42.2532   96.3427 H       866      M_A    0.0000
   6070 C         105.6423   39.0565   95.9813 C.3     867      M_A    0.0000
   6071 C         106.4276   37.8435   96.4711 C.3     867      M_A    0.0000
   6072 O         105.6409   36.6579   96.3555 O.3     867      M_A    0.0000
   6073 H         104.5636   38.8969   96.0841 H       867      M_A    0.0000
   6074 H         105.8546   39.2101   94.9170 H       867      M_A    0.0000
   6075 H         107.3717   37.7527   95.9148 H       867      M_A    0.0000
   6076 H         106.7020   37.9539   97.5276 H       867      M_A    0.0000
   6077 C         106.4339   35.5436   96.0000 C.3     868      M_A    0.0000
   6078 C         107.3837   35.1336   97.1215 C.3     868      M_A    0.0000
   6079 O         107.8191   33.7861   96.9411 O.3     868      M_A    0.0000
   6080 H         105.7776   34.7144   95.7148 H       868      M_A    0.0000
   6081 H         107.0240   35.8176   95.1180 H       868      M_A    0.0000
   6082 H         108.2362   35.8263   97.1691 H       868      M_A    0.0000
   6083 H         106.8860   35.1900   98.0977 H       868      M_A    0.0000
   6084 C         108.8816   33.7058   96.0129 C.3     869      M_A    0.0000
   6085 C         110.1572   34.3540   96.5429 C.3     869      M_A    0.0000
   6086 O         111.1462   34.4254   95.5160 O.3     869      M_A    0.0000
   6087 H         109.0505   32.6553   95.7530 H       869      M_A    0.0000
   6088 H         108.5718   34.2273   95.1000 H       869      M_A    0.0000
   6089 H         109.9347   35.3493   96.9537 H       869      M_A    0.0000
   6090 H         110.5818   33.7682   97.3677 H       869      M_A    0.0000
   6091 C         110.6284   35.0115   94.3390 C.3     870      M_A    0.0000
   6092 C         110.3516   36.5018   94.5136 C.3     870      M_A    0.0000
   6093 O         111.4894   37.2712   94.1245 O.3     870      M_A    0.0000
   6094 H         111.3263   34.8331   93.5140 H       870      M_A    0.0000
   6095 H         109.6890   34.5027   94.0943 H       870      M_A    0.0000
   6096 H         109.4584   36.7915   93.9415 H       870      M_A    0.0000
   6097 H         110.1365   36.7409   95.5626 H       870      M_A    0.0000
   6098 C         111.6201   38.4365   94.9131 C.3     871      M_A    0.0000
   6099 C         112.8355   39.2674   94.5127 C.3     871      M_A    0.0000
   6100 O         112.4884   40.6489   94.4189 O.3     871      M_A    0.0000
   6101 H         110.6983   39.0232   94.8392 H       871      M_A    0.0000
   6102 H         111.7320   38.1254   95.9581 H       871      M_A    0.0000
   6103 H         113.6558   39.1089   95.2274 H       871      M_A    0.0000
   6104 H         113.2172   38.9573   93.5319 H       871      M_A    0.0000
   6105 C         112.5665   41.2884   95.6767 C.3     872      M_A    0.0000
   6106 C         113.2785   42.6352   95.5928 C.3     872      M_A    0.0000
   6107 O         112.3712   43.6560   95.1773 O.3     872      M_A    0.0000
   6108 H         111.5560   41.4001   96.0841 H       872      M_A    0.0000
   6109 H         113.1262   40.6330   96.3537 H       872      M_A    0.0000
   6110 H         113.7413   42.8808   96.5595 H       872      M_A    0.0000
   6111 H         114.0945   42.6029   94.8600 H       872      M_A    0.0000
   6112 C         112.6065   44.0438   93.8390 C.3     873      M_A    0.0000
   6113 C         111.6267   45.1158   93.3711 C.3     873      M_A    0.0000
   6114 O         112.3196   46.3227   93.0530 O.3     873      M_A    0.0000
   6115 H         113.6424   44.3861   93.7430 H       873      M_A    0.0000
   6116 H         112.4905   43.1567   93.2058 H       873      M_A    0.0000
   6117 H         111.0457   44.7500   92.5122 H       873      M_A    0.0000
   6118 H         110.8987   45.3523   94.1572 H       873      M_A    0.0000
   6119 C         111.4784   47.4510   93.1805 C.3     874      M_A    0.0000
   6120 C         111.8513   48.5588   92.1997 C.3     874      M_A    0.0000
   6121 O         112.5349   49.6151   92.8741 O.3     874      M_A    0.0000
   6122 H         110.4376   47.1377   93.0459 H       874      M_A    0.0000
   6123 H         111.5800   47.8333   94.2026 H       874      M_A    0.0000
   6124 H         112.4576   48.1503   91.3784 H       874      M_A    0.0000
   6125 H         110.9555   48.9905   91.7361 H       874      M_A    0.0000
   6126 C         111.9823   50.8758   92.5544 C.3     875      M_A    0.0000
   6127 C         112.8042   51.6123   91.5008 C.3     875      M_A    0.0000
   6128 O         112.1608   51.5467   90.2282 O.3     875      M_A    0.0000
   6129 H         110.9473   50.7388   92.2237 H       875      M_A    0.0000
   6130 H         111.9607   51.4764   93.4709 H       875      M_A    0.0000
   6131 H         112.9725   52.6538   91.8105 H       875      M_A    0.0000
   6132 H         113.7975   51.1594   91.3904 H       875      M_A    0.0000
   6133 C         110.8382   51.0622   90.3417 C.3     876      M_A    0.0000
   6134 C         109.9506   52.0010   91.1536 C.3     876      M_A    0.0000
   6135 O         109.7105   53.2101   90.4336 O.3     876      M_A    0.0000
   6136 H         110.4294   50.9008   89.3385 H       876      M_A    0.0000
   6137 H         110.8777   50.0889   90.8441 H       876      M_A    0.0000
   6138 H         109.0087   51.4990   91.4175 H       876      M_A    0.0000
   6139 H         110.4308   52.2731   92.1018 H       876      M_A    0.0000
   6140 C         109.5097   54.3016   91.3083 C.3     877      M_A    0.0000
   6141 C         110.8010   54.7282   92.0000 C.3     877      M_A    0.0000
   6142 O         111.1392   56.0691   91.6458 O.3     877      M_A    0.0000
   6143 H         109.0686   55.1325   90.7474 H       877      M_A    0.0000
   6144 H         108.7843   53.9939   92.0701 H       877      M_A    0.0000
   6145 H         110.7033   54.6149   93.0893 H       877      M_A    0.0000
   6146 H         111.6386   54.0874   91.6976 H       877      M_A    0.0000
   6147 C         111.5587   56.1582   90.2993 C.3     878      M_A    0.0000
   6148 C         111.5551   57.5968   89.7908 C.3     878      M_A    0.0000
   6149 O         112.8797   58.1291   89.7855 O.3     878      M_A    0.0000
   6150 H         112.5525   55.7078   90.2041 H       878      M_A    0.0000
   6151 H         110.8664   55.5653   89.6907 H       878      M_A    0.0000
   6152 H         111.1010   57.6446   88.7906 H       878      M_A    0.0000
   6153 H         110.9452   58.2401   90.4372 H       878      M_A    0.0000
   6154 C         112.8878   59.4924   89.4138 C.3     879      M_A    0.0000
   6155 C         112.2325   60.3790   90.4686 C.3     879      M_A    0.0000
   6156 O         112.8967   61.6403   90.5451 O.3     879      M_A    0.0000
   6157 H         113.9199   59.8041   89.2211 H       879      M_A    0.0000
   6158 H         112.3316   59.5888   88.4743 H       879      M_A    0.0000
   6159 H         111.1624   60.5033   90.2482 H       879      M_A    0.0000
   6160 H         112.2908   59.9163   91.4617 H       879      M_A    0.0000
   6161 C         112.2160   62.6294   89.8000 C.3     880      M_A    0.0000
   6162 C         112.7714   64.0268   90.0587 C.3     880      M_A    0.0000
   6163 O         112.8162   64.7798   88.8468 O.3     880      M_A    0.0000
   6164 H         112.2677   62.3741   88.7362 H       880      M_A    0.0000
   6165 H         111.1607   62.6070   90.0953 H       880      M_A    0.0000
   6166 H         112.1710   64.5379   90.8251 H       880      M_A    0.0000
   6167 H         113.7944   63.9760   90.4520 H       880      M_A    0.0000
   6168 C         111.5202   65.1395   88.4131 C.3     881      M_A    0.0000
   6169 C         111.2093   66.6076   88.6888 C.3     881      M_A    0.0000
   6170 O         111.4965   67.4044   87.5397 O.3     881      M_A    0.0000
   6171 H         111.4232   64.9083   87.3470 H       881      M_A    0.0000
   6172 H         110.7988   64.5166   88.9543 H       881      M_A    0.0000
   6173 H         110.1617   66.7212   89.0025 H       881      M_A    0.0000
   6174 H         111.8215   66.9901   89.5151 H       881      M_A    0.0000
   6175 C         111.3425   68.7820   87.8139 C.3     882      M_A    0.0000
   6176 C         111.3218   69.6221   86.5403 C.3     882      M_A    0.0000
   6177 O         110.5003   70.7764   86.7155 O.3     882      M_A    0.0000
   6178 H         110.4291   68.9298   88.3998 H       882      M_A    0.0000
   6179 H         112.1889   69.0989   88.4339 H       882      M_A    0.0000
   6180 H         112.3458   69.9001   86.2524 H       882      M_A    0.0000
   6181 H         110.9098   69.0503   85.6994 H       882      M_A    0.0000
   6182 C         110.1065   71.3242   85.4738 C.3     883      M_A    0.0000
   6183 C         110.1682   72.8488   85.4735 C.3     883      M_A    0.0000
   6184 O         110.7537   73.3257   84.2621 O.3     883      M_A    0.0000
   6185 H         110.7350   70.9030   84.6820 H       883      M_A    0.0000
   6186 H         109.0743   71.0111   85.2795 H       883      M_A    0.0000
   6187 H         109.1635   73.2693   85.6247 H       883      M_A    0.0000
   6188 H         110.7842   73.2169   86.3034 H       883      M_A    0.0000
   6189 C         110.0946   74.4830   83.7897 C.3     884      M_A    0.0000
   6190 C         109.9223   75.5326   84.8837 C.3     884      M_A    0.0000
   6191 O         110.1577   76.8409   84.3636 O.3     884      M_A    0.0000
   6192 H         110.6506   74.8880   82.9374 H       884      M_A    0.0000
   6193 H         109.1048   74.1828   83.4272 H       884      M_A    0.0000
   6194 H         108.9207   75.4541   85.3304 H       884      M_A    0.0000
   6195 H         110.6372   75.3700   85.6999 H       884      M_A    0.0000
   6196 C         109.1221   77.2447   83.4909 C.3     885      M_A    0.0000
   6197 C         109.0376   78.7628   83.3638 C.3     885      M_A    0.0000
   6198 O         109.3606   79.1725   82.0350 O.3     885      M_A    0.0000
   6199 H         109.2744   76.7740   82.5138 H       885      M_A    0.0000
   6200 H         108.1751   76.8695   83.8955 H       885      M_A    0.0000
   6201 H         108.0380   79.1133   83.6584 H       885      M_A    0.0000
   6202 H         109.7481   79.2536   84.0407 H       885      M_A    0.0000
   6203 C         109.9497   80.4569   82.0185 C.3     886      M_A    0.0000
   6204 C         111.3517   80.4379   81.4166 C.3     886      M_A    0.0000
   6205 O         111.3150   80.8479   80.0497 O.3     886      M_A    0.0000
   6206 H         109.2943   81.1437   81.4724 H       886      M_A    0.0000
   6207 H         110.0131   80.8119   83.0536 H       886      M_A    0.0000
   6208 H         112.0268   81.0740   82.0069 H       886      M_A    0.0000
   6209 H         111.7774   79.4271   81.4451 H       886      M_A    0.0000
   6210 C         111.6016   82.2251   79.9149 C.3     887      M_A    0.0000
   6211 C         110.3478   83.0866   80.0323 C.3     887      M_A    0.0000
   6212 O         110.3379   83.7894   81.2748 O.3     887      M_A    0.0000
   6213 H         112.3483   82.5096   80.6639 H       887      M_A    0.0000
   6214 H         112.0479   82.3812   78.9261 H       887      M_A    0.0000
   6215 H         110.2821   83.7790   79.1807 H       887      M_A    0.0000
   6216 H         109.4420   82.4684   79.9973 H       887      M_A    0.0000
   6217 C         111.5577   84.4679   81.4949 C.3     888      M_A    0.0000
   6218 C         111.4795   85.9363   81.0878 C.3     888      M_A    0.0000
   6219 O         111.1055   86.7456   82.2027 O.3     888      M_A    0.0000
   6220 H         111.8393   84.3642   82.5482 H       888      M_A    0.0000
   6221 H         112.3309   83.9744   80.8950 H       888      M_A    0.0000
   6222 H         112.4383   86.2632   80.6601 H       888      M_A    0.0000
   6223 H         110.7257   86.0871   80.3049 H       888      M_A    0.0000
   6224 C         110.5965   87.9963   81.7864 C.3     889      M_A    0.0000
   6225 C         111.5060   89.1512   82.1951 C.3     889      M_A    0.0000
   6226 O         111.6041   90.1084   81.1406 O.3     889      M_A    0.0000
   6227 H         110.4448   87.9773   80.7019 H       889      M_A    0.0000
   6228 H         109.6157   88.1342   82.2559 H       889      M_A    0.0000
   6229 H         111.1384   89.6140   83.1223 H       889      M_A    0.0000
   6230 H         112.5210   88.7944   82.4103 H       889      M_A    0.0000
   6231 C         112.5807   91.0901   81.4223 C.3     890      M_A    0.0000
   6232 C         112.5952   92.2020   80.3775 C.3     890      M_A    0.0000
   6233 O         112.3290   93.4651   80.9871 O.3     890      M_A    0.0000
   6234 H         112.4038   91.4925   82.4254 H       890      M_A    0.0000
   6235 H         113.5602   90.5984   81.4304 H       890      M_A    0.0000
   6236 H         113.5571   92.2098   79.8449 H       890      M_A    0.0000
   6237 H         111.8229   92.0354   79.6162 H       890      M_A    0.0000
   6238 C         112.0875   94.4659   80.0191 C.3     891      M_A    0.0000
   6239 C         112.9569   95.7002   80.2403 C.3     891      M_A    0.0000
   6240 O         113.5332   96.1336   79.0083 O.3     891      M_A    0.0000
   6241 H         112.2469   94.0438   79.0212 H       891      M_A    0.0000
   6242 H         111.0333   94.7572   80.0913 H       891      M_A    0.0000
   6243 H         112.3670   96.5008   80.7094 H       891      M_A    0.0000
   6244 H         113.7818   95.4810   80.9297 H       891      M_A    0.0000
   6245 C         114.5417   97.1004   79.2209 C.3     892      M_A    0.0000
   6246 C         115.0713   97.6754   77.9105 C.3     892      M_A    0.0000
   6247 O         115.5443   99.0083   78.1039 O.3     892      M_A    0.0000
   6248 H         114.1482   97.8907   79.8690 H       892      M_A    0.0000
   6249 H         115.3670   96.6147   79.7541 H       892      M_A    0.0000
   6250 H         115.8595   97.0266   77.5024 H       892      M_A    0.0000
   6251 H         114.2805   97.7145   77.1510 H       892      M_A    0.0000
   6252 C         116.4920   99.3687   77.1196 C.3     893      M_A    0.0000
   6253 C         117.2174  100.6650   77.4683 C.3     893      M_A    0.0000
   6254 O         118.5992  100.5741   77.1216 O.3     893      M_A    0.0000
   6255 H         117.1995   98.5435   76.9856 H       893      M_A    0.0000
   6256 H         115.9584   99.5049   76.1719 H       893      M_A    0.0000
   6257 H         116.7347  101.5165   76.9675 H       893      M_A    0.0000
   6258 H         117.1616  100.8687   78.5449 H       893      M_A    0.0000
   6259 C         119.3517  101.6101   77.7193 C.3     894      M_A    0.0000
   6260 C         120.5120  102.0599   76.8364 C.3     894      M_A    0.0000
   6261 O         120.3500  103.4258   76.4544 O.3     894      M_A    0.0000
   6262 H         118.6850  102.4471   77.9527 H       894      M_A    0.0000
   6263 H         119.7529  101.2318   78.6665 H       894      M_A    0.0000
   6264 H         121.4680  101.9006   77.3557 H       894      M_A    0.0000
   6265 H         120.5585  101.4647   75.9159 H       894      M_A    0.0000
   6266 C         119.2872  103.5836   75.5365 C.3     895      M_A    0.0000
   6267 C         119.2352  104.9933   74.9550 C.3     895      M_A    0.0000
   6268 O         120.0718  105.0903   73.8024 O.3     895      M_A    0.0000
   6269 H         119.3842  102.8328   74.7450 H       895      M_A    0.0000
   6270 H         118.3499  103.3848   76.0688 H       895      M_A    0.0000
   6271 H         118.1971  105.2688   74.7200 H       895      M_A    0.0000
   6272 H         119.5926  105.7318   75.6835 H       895      M_A    0.0000
   6273 C         121.0415  106.1074   73.9513 C.3     896      M_A    0.0000
   6274 C         120.6972  107.3523   73.1390 C.3     896      M_A    0.0000
   6275 O         121.0742  108.5326   73.8480 O.3     896      M_A    0.0000
   6276 H         121.1483  106.3463   75.0148 H       896      M_A    0.0000
   6277 H         122.0020  105.7109   73.6026 H       896      M_A    0.0000
   6278 H         121.1801  107.3071   72.1523 H       896      M_A    0.0000
   6279 H         119.6179  107.4125   72.9513 H       896      M_A    0.0000
   6280 C         122.4692  108.5798   74.0690 C.3     897      M_A    0.0000
   6281 C         123.1242  109.7579   73.3541 C.3     897      M_A    0.0000
   6282 O         123.9700  110.4793   74.2497 O.3     897      M_A    0.0000
   6283 H         122.6591  108.6163   75.1470 H       897      M_A    0.0000
   6284 H         122.9025  107.6482   73.6875 H       897      M_A    0.0000
   6285 H         123.6815  109.4056   72.4742 H       897      M_A    0.0000
   6286 H         122.3682  110.4593   72.9795 H       897      M_A    0.0000
   6287 C         125.3217  110.4250   73.8413 C.3     898      M_A    0.0000
   6288 C         125.5371  111.0807   72.4804 C.3     898      M_A    0.0000
   6289 O         126.7216  111.8774   72.4906 O.3     898      M_A    0.0000
   6290 H         125.9462  110.8939   74.6092 H       898      M_A    0.0000
   6291 H         125.6121  109.3701   73.7765 H       898      M_A    0.0000
   6292 H         125.5769  110.3150   71.6923 H       898      M_A    0.0000
   6293 H         124.6990  111.7414   72.2260 H       898      M_A    0.0000
   6294 C         126.9619  112.4305   73.7686 C.3     899      M_A    0.0000
   6295 C         128.1900  111.8195   74.4369 C.3     899      M_A    0.0000
   6296 O         128.1311  110.3941   74.3848 O.3     899      M_A    0.0000
   6297 H         127.0625  113.5170   73.6745 H       899      M_A    0.0000
   6298 H         126.0830  112.2318   74.3925 H       899      M_A    0.0000
   6299 H         129.1074  112.1993   73.9647 H       899      M_A    0.0000
   6300 H         128.2457  112.1076   75.4941 H       899      M_A    0.0000
   6301 C         126.7971  109.9340   74.3101 C.3     900      M_A    0.0000
   6302 C         126.5991  108.9283   73.1799 C.3     900      M_A    0.0000
   6303 O         126.7892  107.5961   73.6564 O.3     900      M_A    0.0000
   6304 H         126.5128  109.5038   75.2764 H       900      M_A    0.0000
   6305 H         126.1511  110.8010   74.1304 H       900      M_A    0.0000
   6306 H         125.6036  109.0538   72.7302 H       900      M_A    0.0000
   6307 H         127.3245  109.0956   72.3739 H       900      M_A    0.0000
   6308 C         125.5884  106.8527   73.6068 C.3     901      M_A    0.0000
   6309 C         125.0232  106.5816   74.9979 C.3     901      M_A    0.0000
   6310 O         123.6922  106.0736   74.9070 O.3     901      M_A    0.0000
   6311 H         124.8635  107.3860   72.9825 H       901      M_A    0.0000
   6312 H         125.8048  105.8952   73.1192 H       901      M_A    0.0000
   6313 H         125.6788  105.8895   75.5457 H       901      M_A    0.0000
   6314 H         124.9831  107.5032   75.5918 H       901      M_A    0.0000
   6315 C         122.7897  106.8482   75.6701 C.3     902      M_A    0.0000
   6316 C         123.3523  108.2281   75.9980 C.3     902      M_A    0.0000
   6317 O         122.3943  109.0001   76.7218 O.3     902      M_A    0.0000
   6318 H         121.8404  106.9267   75.1295 H       902      M_A    0.0000
   6319 H         122.5946  106.3131   76.6065 H       902      M_A    0.0000
   6320 H         124.2932  108.1308   76.5586 H       902      M_A    0.0000
   6321 H         123.5953  108.7809   75.0820 H       902      M_A    0.0000
   6322 C         122.4347  110.3611   76.3436 C.3     903      M_A    0.0000
   6323 C         123.1286  111.2275   77.3904 C.3     903      M_A    0.0000
   6324 O         123.4795  112.4960   76.8375 O.3     903      M_A    0.0000
   6325 H         122.9279  110.4468   75.3695 H       903      M_A    0.0000
   6326 H         121.4020  110.7084   76.2239 H       903      M_A    0.0000
   6327 H         122.4862  111.3410   78.2755 H       903      M_A    0.0000
   6328 H         124.0545  110.7543   77.7405 H       903      M_A    0.0000
   6329 C         123.2681  112.5276   75.4406 C.3     904      M_A    0.0000
   6330 C         121.9772  111.8201   75.0391 C.3     904      M_A    0.0000
   6331 O         120.9003  112.2265   75.8835 O.3     904      M_A    0.0000
   6332 H         123.2696  113.5693   75.1024 H       904      M_A    0.0000
   6333 H         124.1137  112.0219   74.9603 H       904      M_A    0.0000
   6334 H         121.7510  112.0148   73.9809 H       904      M_A    0.0000
   6335 H         122.0790  110.7321   75.1372 H       904      M_A    0.0000
   6336 C         120.6334  113.6080   75.7525 C.3     905      M_A    0.0000
   6337 C         120.2248  113.9815   74.3306 C.3     905      M_A    0.0000
   6338 O         118.8060  114.1052   74.2337 O.3     905      M_A    0.0000
   6339 H         119.8597  113.8924   76.4737 H       905      M_A    0.0000
   6340 H         121.5470  114.1540   76.0139 H       905      M_A    0.0000
   6341 H         120.7290  114.9086   74.0221 H       905      M_A    0.0000
   6342 H         120.5367  113.2089   73.6168 H       905      M_A    0.0000
   6343 C         118.2823  114.8914   75.2847 C.3     906      M_A    0.0000
   6344 C         118.9625  116.2542   75.3760 C.3     906      M_A    0.0000
   6345 O         119.1076  116.6508   76.7396 O.3     906      M_A    0.0000
   6346 H         117.2010  114.9977   75.1469 H       906      M_A    0.0000
   6347 H         118.4452  114.3503   76.2238 H       906      M_A    0.0000
   6348 H         119.9339  116.2288   74.8614 H       906      M_A    0.0000
   6349 H         118.3666  117.0250   74.8713 H       906      M_A    0.0000
   6350 C         120.3238  116.1842   77.2873 C.3     907      M_A    0.0000
   6351 C         121.5371  116.7350   76.5440 C.3     907      M_A    0.0000
   6352 O         122.2032  117.7201   77.3338 O.3     907      M_A    0.0000
   6353 H         120.3600  116.4444   78.3506 H       907      M_A    0.0000
   6354 H         120.3291  115.0907   77.2134 H       907      M_A    0.0000
   6355 H         122.2174  115.9163   76.2687 H       907      M_A    0.0000
   6356 H         121.2370  117.2153   75.6043 H       907      M_A    0.0000
   6357 C         122.2050  118.9806   76.6950 C.3     908      M_A    0.0000
   6358 C         122.0892  120.1297   77.6921 C.3     908      M_A    0.0000
   6359 O         122.2884  121.3825   77.0373 O.3     908      M_A    0.0000
   6360 H         123.1126  119.0729   76.0891 H       908      M_A    0.0000
   6361 H         121.3469  119.0144   76.0139 H       908      M_A    0.0000
   6362 H         121.1148  120.0946   78.2002 H       908      M_A    0.0000
   6363 H         122.8499  120.0454   78.4783 H       908      M_A    0.0000
   6364 C         123.4742  121.3816   76.2686 C.3     909      M_A    0.0000
   6365 C         123.1896  121.4954   74.7739 C.3     909      M_A    0.0000
   6366 O         123.8167  122.6578   74.2322 O.3     909      M_A    0.0000
   6367 H         124.1225  122.1954   76.6107 H       909      M_A    0.0000
   6368 H         123.9984  120.4380   76.4589 H       909      M_A    0.0000
   6369 H         123.5193  120.5842   74.2544 H       909      M_A    0.0000
   6370 H         122.1125  121.5850   74.5851 H       909      M_A    0.0000
   6371 C         125.1019  122.3628   73.7241 C.3     910      M_A    0.0000
   6372 C         125.0393  121.4769   72.4834 C.3     910      M_A    0.0000
   6373 O         126.3466  121.2735   71.9472 O.3     910      M_A    0.0000
   6374 H         125.6270  123.3007   73.5140 H       910      M_A    0.0000
   6375 H         125.6613  121.8378   74.5068 H       910      M_A    0.0000
   6376 H         124.5526  120.5208   72.7239 H       910      M_A    0.0000
   6377 H         124.4311  121.9432   71.6982 H       910      M_A    0.0000
   6378 C         127.2251  120.7372   72.9154 C.3     911      M_A    0.0000
   6379 C         128.6038  120.4358   72.3354 C.3     911      M_A    0.0000
   6380 O         129.5641  121.3786   72.8118 O.3     911      M_A    0.0000
   6381 H         127.2943  121.4321   73.7590 H       911      M_A    0.0000
   6382 H         126.7861  119.8050   73.2890 H       911      M_A    0.0000
   6383 H         128.9007  119.4053   72.5782 H       911      M_A    0.0000
   6384 H         128.5925  120.5033   71.2404 H       911      M_A    0.0000
   6385 C         130.6170  121.5570   71.8863 C.3     912      M_A    0.0000
   6386 C         131.0506  123.0163   71.7842 C.3     912      M_A    0.0000
   6387 O         132.2702  123.2270   72.4957 O.3     912      M_A    0.0000
   6388 H         131.4565  120.9142   72.1718 H       912      M_A    0.0000
   6389 H         130.2627  121.2229   70.9044 H       912      M_A    0.0000
   6390 H         131.1472  123.3106   70.7292 H       912      M_A    0.0000
   6391 H         130.2959  123.6817   72.2218 H       912      M_A    0.0000
   6392 C         133.1618  122.1439   72.3257 C.3     913      M_A    0.0000
   6393 C         133.2384  121.6859   70.8723 C.3     913      M_A    0.0000
   6394 O         134.2601  120.7021   70.7107 O.3     913      M_A    0.0000
   6395 H         134.1493  122.4315   72.7021 H       913      M_A    0.0000
   6396 H         132.8021  121.3115   72.9413 H       913      M_A    0.0000
   6397 H         132.2610  121.3053   70.5423 H       913      M_A    0.0000
   6398 H         133.4822  122.5249   70.2086 H       913      M_A    0.0000
   6399 C         133.8693  119.6954   69.7994 C.3     914      M_A    0.0000
   6400 C         133.2954  120.2782   68.5113 C.3     914      M_A    0.0000
   6401 O         133.6651  119.4752   67.3904 O.3     914      M_A    0.0000
   6402 H         134.7280  119.0480   69.5921 H       914      M_A    0.0000
   6403 H         133.1011  119.0819   70.2840 H       914      M_A    0.0000
   6404 H         132.2030  120.3740   68.5917 H       914      M_A    0.0000
   6405 H         133.6810  121.2897   68.3322 H       914      M_A    0.0000
   6406 C         132.6718  119.5011   66.3856 C.3     915      M_A    0.0000
   6407 C         132.1366  120.9094   66.1436 C.3     915      M_A    0.0000
   6408 O         133.0507  121.8850   66.6439 O.3     915      M_A    0.0000
   6409 H         133.0824  119.0709   65.4660 H       915      M_A    0.0000
   6410 H         131.8456  118.8590   66.7118 H       915      M_A    0.0000
   6411 H         131.9366  121.0606   65.0730 H       915      M_A    0.0000
   6412 H         131.1803  121.0600   66.6599 H       915      M_A    0.0000
   6413 C         132.3779  123.0492   67.0787 C.3     916      M_A    0.0000
   6414 C         133.1939  123.8363   68.0998 C.3     916      M_A    0.0000
   6415 O         134.2700  124.5217   67.4594 O.3     916      M_A    0.0000
   6416 H         132.1329  123.6666   66.2079 H       916      M_A    0.0000
   6417 H         131.4340  122.7398   67.5417 H       916      M_A    0.0000
   6418 H         132.5447  124.5344   68.6476 H       916      M_A    0.0000
   6419 H         133.6315  123.1679   68.8519 H       916      M_A    0.0000
   6420 C         133.8364  125.7325   66.8738 C.3     917      M_A    0.0000
   6421 C         133.2567  126.6945   67.9066 C.3     917      M_A    0.0000
   6422 O         134.2553  127.6126   68.3513 O.3     917      M_A    0.0000
   6423 H         134.6736  126.1887   66.3348 H       917      M_A    0.0000
   6424 H         133.0602  125.4921   66.1383 H       917      M_A    0.0000
   6425 H         132.3869  127.2214   67.4883 H       917      M_A    0.0000
   6426 H         132.8934  126.1518   68.7882 H       917      M_A    0.0000
   6427 C         133.7638  128.9372   68.3806 C.3     918      M_A    0.0000
   6428 C         134.3682  129.7984   67.2756 C.3     918      M_A    0.0000
   6429 O         133.3664  130.6216   66.6783 O.3     918      M_A    0.0000
   6430 H         132.6710  128.9145   68.3111 H       918      M_A    0.0000
   6431 H         134.0251  129.3721   69.3521 H       918      M_A    0.0000
   6432 H         135.1960  130.4021   67.6748 H       918      M_A    0.0000
   6433 H         134.7969  129.1743   66.4816 H       918      M_A    0.0000
   6434 C         132.8606  131.5693   67.5964 C.3     919      M_A    0.0000
   6435 C         132.3960  132.8475   66.9047 C.3     919      M_A    0.0000
   6436 O         130.9926  133.0341   67.0881 O.3     919      M_A    0.0000
   6437 H         132.0472  131.1122   68.1700 H       919      M_A    0.0000
   6438 H         133.6631  131.8185   68.3000 H       919      M_A    0.0000
   6439 H         132.9663  133.7100   67.2785 H       919      M_A    0.0000
   6440 H         132.5827  132.7995   65.8246 H       919      M_A    0.0000
   6441 C         130.5154  134.1349   66.3414 C.3     920      M_A    0.0000
   6442 C         129.2608  133.7879   65.5452 C.3     920      M_A    0.0000
   6443 O         128.4667  134.9543   65.3291 O.3     920      M_A    0.0000
   6444 H         130.3331  134.9750   67.0200 H       920      M_A    0.0000
   6445 H         131.3053  134.4372   65.6444 H       920      M_A    0.0000
   6446 H         129.5352  133.3091   64.5942 H       920      M_A    0.0000
   6447 H         128.6399  133.0635   66.0869 H       920      M_A    0.0000
   6448 C         129.0109  135.7692   64.3109 C.3     921      M_A    0.0000
   6449 C         128.0033  136.7915   63.7936 C.3     921      M_A    0.0000
   6450 O         128.5571  137.5352   62.7083 O.3     921      M_A    0.0000
   6451 H         129.9132  136.2605   64.6904 H       921      M_A    0.0000
   6452 H         129.3118  135.1176   63.4826 H       921      M_A    0.0000
   6453 H         127.0703  136.2896   63.4995 H       921      M_A    0.0000
   6454 H         127.7330  137.5084   64.5790 H       921      M_A    0.0000
   6455 C         127.5541  138.2182   61.9842 C.3     922      M_A    0.0000
   6456 C         126.5019  138.8338   62.9018 C.3     922      M_A    0.0000
   6457 O         126.0455  140.0796   62.3751 O.3     922      M_A    0.0000
   6458 H         128.0245  138.9811   61.3546 H       922      M_A    0.0000
   6459 H         127.0664  137.4953   61.3203 H       922      M_A    0.0000
   6460 H         125.6682  138.1319   63.0477 H       922      M_A    0.0000
   6461 H         126.9168  139.0306   63.8983 H       922      M_A    0.0000
   6462 C         125.6922  140.9789   63.4063 C.3     923      M_A    0.0000
   6463 C         125.3908  142.3758   62.8716 C.3     923      M_A    0.0000
   6464 O         124.0504  142.4473   62.3859 O.3     923      M_A    0.0000
   6465 H         124.8366  140.5731   63.9566 H       923      M_A    0.0000
   6466 H         126.5357  141.0404   64.1034 H       923      M_A    0.0000
   6467 H         125.5741  143.1285   63.6519 H       923      M_A    0.0000
   6468 H         126.0566  142.6288   62.0370 H       923      M_A    0.0000
   6469 C         123.9488  143.3130   61.2736 C.3     924      M_A    0.0000
   6470 C         122.8443  144.3504   61.4525 C.3     924      M_A    0.0000
   6471 O         123.1409  145.5309   60.7067 O.3     924      M_A    0.0000
   6472 H         124.9185  143.7932   61.1048 H       924      M_A    0.0000
   6473 H         123.7228  142.7031   60.3914 H       924      M_A    0.0000
   6474 H         121.8735  143.9256   61.1592 H       924      M_A    0.0000
   6475 H         122.7471  144.6429   62.5055 H       924      M_A    0.0000
   6476 C         124.2479  145.3370   59.8500 C.3     925      M_A    0.0000
   6477 C         124.1607  146.2001   58.5948 C.3     925      M_A    0.0000
   6478 O         125.3008  147.0531   58.4938 O.3     925      M_A    0.0000
   6479 H         125.1696  145.5395   60.4058 H       925      M_A    0.0000
   6480 H         124.2643  144.2818   59.5542 H       925      M_A    0.0000
   6481 H         124.0565  145.5646   57.7037 H       925      M_A    0.0000
   6482 H         123.2714  146.8422   58.6209 H       925      M_A    0.0000
   6483 C         124.9490  148.3308   58.0033 C.3     926      M_A    0.0000
   6484 C         125.2715  149.4381   59.0023 C.3     926      M_A    0.0000
   6485 O         126.1350  150.4093   58.4115 O.3     926      M_A    0.0000
   6486 H         125.4579  148.4996   57.0482 H       926      M_A    0.0000
   6487 H         123.8704  148.3319   57.8088 H       926      M_A    0.0000
   6488 H         124.3437  149.8992   59.3704 H       926      M_A    0.0000
   6489 H         125.7856  149.0343   59.8835 H       926      M_A    0.0000
   6490 C         125.5361  151.0166   57.2848 C.3     927      M_A    0.0000
   6491 C         124.9192  152.3707   57.6224 C.3     927      M_A    0.0000
   6492 O         125.6829  153.4275   57.0411 O.3     927      M_A    0.0000
   6493 H         126.2835  151.1099   56.4896 H       927      M_A    0.0000
   6494 H         124.7471  150.3482   56.9213 H       927      M_A    0.0000
   6495 H         123.8719  152.4042   57.2893 H       927      M_A    0.0000
   6496 H         124.9029  152.5352   58.7070 H       927      M_A    0.0000
   6497 C         125.1210  153.8599   55.8187 C.3     928      M_A    0.0000
   6498 C         124.7588  155.3418   55.8457 C.3     928      M_A    0.0000
   6499 O         125.1843  155.9830   54.6434 O.3     928      M_A    0.0000
   6500 H         125.8208  153.6387   55.0058 H       928      M_A    0.0000
   6501 H         124.2110  153.2756   55.6408 H       928      M_A    0.0000
   6502 H         123.6777  155.4655   56.0039 H       928      M_A    0.0000
   6503 H         125.2528  155.8515   56.6824 H       928      M_A    0.0000
   6504 C         126.3500  155.3796   54.1200 C.3     929      M_A    0.0000
   6505 C         127.6199  156.0893   54.5801 C.3     929      M_A    0.0000
   6506 O         127.6264  156.2329   56.0004 O.3     929      M_A    0.0000
   6507 H         126.3632  154.3219   54.4040 H       929      M_A    0.0000
   6508 H         126.2928  155.4284   53.0266 H       929      M_A    0.0000
   6509 H         128.5078  155.5438   54.2293 H       929      M_A    0.0000
   6510 H         127.6859  157.0956   54.1479 H       929      M_A    0.0000
   6511 C         127.4501  157.5812   56.3847 C.3     930      M_A    0.0000
   6512 C         128.5851  158.0774   57.2755 C.3     930      M_A    0.0000
   6513 O         129.7612  158.3148   56.5020 O.3     930      M_A    0.0000
   6514 H         127.3540  158.1994   55.4858 H       930      M_A    0.0000
   6515 H         126.5072  157.6531   56.9388 H       930      M_A    0.0000
   6516 H         128.2741  158.9818   57.8181 H       930      M_A    0.0000
   6517 H         128.8393  157.3320   58.0394 H       930      M_A    0.0000
   6518 C         129.4477  158.5615   55.1464 C.3     931      M_A    0.0000
   6519 C         128.1795  159.3960   54.9931 C.3     931      M_A    0.0000
   6520 O         128.4305  160.7569   55.3434 O.3     931      M_A    0.0000
   6521 H         130.3022  159.0488   54.6649 H       931      M_A    0.0000
   6522 H         129.2971  157.5940   54.6539 H       931      M_A    0.0000
   6523 H         127.7916  159.3120   53.9677 H       931      M_A    0.0000
   6524 H         127.3850  159.0278   55.6541 H       931      M_A    0.0000
   6525 C         127.2552  161.4008   55.7917 C.3     932      M_A    0.0000
   6526 C         127.4922  162.2061   57.0659 C.3     932      M_A    0.0000
   6527 O         128.3856  163.2906   56.8136 O.3     932      M_A    0.0000
   6528 H         126.8675  162.0366   54.9886 H       932      M_A    0.0000
   6529 H         126.5045  160.6286   55.9948 H       932      M_A    0.0000
   6530 H         126.5351  162.5629   57.4728 H       932      M_A    0.0000
   6531 H         127.9452  161.5820   57.8462 H       932      M_A    0.0000
   6532 C         127.7160  164.5341   56.8612 C.3     933      M_A    0.0000
   6533 C         128.6441  165.6703   57.2804 C.3     933      M_A    0.0000
   6534 O         129.0371  166.4405   56.1445 O.3     933      M_A    0.0000
   6535 H         127.2631  164.7337   55.8842 H       933      M_A    0.0000
   6536 H         126.9038  164.4517   57.5925 H       933      M_A    0.0000
   6537 H         128.1564  166.2982   58.0400 H       933      M_A    0.0000
   6538 H         129.5583  165.2795   57.7445 H       933      M_A    0.0000
   6539 C         130.2122  167.1815   56.4035 C.3     934      M_A    0.0000
   6540 C         131.2359  167.0456   55.2802 C.3     934      M_A    0.0000
   6541 O         131.7940  168.3186   54.9550 O.3     934      M_A    0.0000
   6542 H         129.9440  168.2304   56.5691 H       934      M_A    0.0000
   6543 H         130.6525  166.8013   57.3324 H       934      M_A    0.0000
   6544 H         132.0179  166.3269   55.5644 H       934      M_A    0.0000
   6545 H         130.7693  166.6492   54.3697 H       934      M_A    0.0000
   6546 C         132.9784  168.1854   54.1958 C.3     935      M_A    0.0000
   6547 C         133.8435  169.4408   54.2565 C.3     935      M_A    0.0000
   6548 O         135.2237  169.1048   54.1154 O.3     935      M_A    0.0000
   6549 H         133.5309  167.3073   54.5468 H       935      M_A    0.0000
   6550 H         132.6920  168.0021   53.1539 H       935      M_A    0.0000
   6551 H         133.5258  170.1581   53.4861 H       935      M_A    0.0000
   6552 H         133.7266  169.9519   55.2203 H       935      M_A    0.0000
   6553 C         136.0457  169.9625   54.8807 C.3     936      M_A    0.0000
   6554 C         136.9635  170.8103   54.0049 C.3     936      M_A    0.0000
   6555 O         136.2172  171.8247   53.3327 O.3     936      M_A    0.0000
   6556 H         135.4125  170.5920   55.5151 H       936      M_A    0.0000
   6557 H         136.6608  169.3398   55.5403 H       936      M_A    0.0000
   6558 H         137.7720  171.2440   54.6109 H       936      M_A    0.0000
   6559 H         137.4498  170.1965   53.2364 H       936      M_A    0.0000
   6560 C         135.4092  171.2799   52.3094 C.3     937      M_A    0.0000
   6561 C         134.1557  172.1140   52.0622 C.3     937      M_A    0.0000
   6562 O         134.4637  173.2551   51.2616 O.3     937      M_A    0.0000
   6563 H         136.0061  171.1831   51.3962 H       937      M_A    0.0000
   6564 H         135.1092  170.2718   52.6176 H       937      M_A    0.0000
   6565 H         133.3750  171.4967   51.5949 H       937      M_A    0.0000
   6566 H         133.7348  172.4797   53.0072 H       937      M_A    0.0000
   6567 C         133.2956  173.8370   50.7194 C.3     938      M_A    0.0000
   6568 C         133.1170  175.2860   51.1629 C.3     938      M_A    0.0000
   6569 O         133.5339  176.1802   50.1311 O.3     938      M_A    0.0000
   6570 H         133.3315  173.7594   49.6275 H       938      M_A    0.0000
   6571 H         132.4359  173.2518   51.0652 H       938      M_A    0.0000
   6572 H         132.0719  175.4683   51.4518 H       938      M_A    0.0000
   6573 H         133.7243  175.5026   52.0505 H       938      M_A    0.0000
   6574 C         133.0433  177.4872   50.3501 C.3     939      M_A    0.0000
   6575 C         134.1618  178.4736   50.6727 C.3     939      M_A    0.0000
   6576 O         133.8656  179.7608   50.1311 O.3     939      M_A    0.0000
   6577 H         132.4752  177.8077   49.4703 H       939      M_A    0.0000
   6578 H         132.3489  177.4491   51.1972 H       939      M_A    0.0000
   6579 H         134.3213  178.5242   51.7595 H       939      M_A    0.0000
   6580 H         135.1133  178.1447   50.2367 H       939      M_A    0.0000
   6581 C         133.9684  180.7715   51.1133 C.3     940      M_A    0.0000
   6582 C         134.0420  182.1655   50.4973 C.3     940      M_A    0.0000
   6583 O         133.6533  183.1548   51.4501 O.3     940      M_A    0.0000
   6584 H         133.1210  180.6879   51.8021 H       940      M_A    0.0000
   6585 H         134.8829  180.5897   51.6894 H       940      M_A    0.0000
   6586 H         135.0537  182.3572   50.1119 H       940      M_A    0.0000
   6587 H         133.3640  182.2517   49.6390 H       940      M_A    0.0000
   6588 C         134.7277  183.5069   52.2978 C.3     941      M_A    0.0000
   6589 C         135.8302  184.2497   51.5490 C.3     941      M_A    0.0000
   6590 O         135.9979  185.5642   52.0800 O.3     941      M_A    0.0000
   6591 H         134.3441  184.1047   53.1315 H       941      M_A    0.0000
   6592 H         135.1435  182.5831   52.7162 H       941      M_A    0.0000
   6593 H         136.7689  183.6786   51.5913 H       941      M_A    0.0000
   6594 H         135.5809  184.3543   50.4857 H       941      M_A    0.0000
   6595 C         136.7741  185.5499   53.2608 C.3     942      M_A    0.0000
   6596 C         138.0190  186.4238   53.1400 C.3     942      M_A    0.0000
   6597 O         138.5434  186.7291   54.4322 O.3     942      M_A    0.0000
   6598 H         136.1494  185.8660   54.1030 H       942      M_A    0.0000
   6599 H         137.0839  184.5154   53.4479 H       942      M_A    0.0000
   6600 H         138.7714  185.9276   52.5102 H       942      M_A    0.0000
   6601 H         137.7843  187.3756   52.6475 H       942      M_A    0.0000
   6602 C         139.7112  187.5198   54.3428 C.3     943      M_A    0.0000
   6603 C         140.9299  186.8122   54.9279 C.3     943      M_A    0.0000
   6604 O         141.9509  186.6744   53.9399 O.3     943      M_A    0.0000
   6605 H         139.8781  187.7936   53.2956 H       943      M_A    0.0000
   6606 H         139.5355  188.4451   54.9033 H       943      M_A    0.0000
   6607 H         141.2976  187.3563   55.8098 H       943      M_A    0.0000
   6608 H         140.6697  185.8041   55.2743 H       943      M_A    0.0000
   6609 C         143.1187  186.0907   54.4808 C.3     944      M_A    0.0000
   6610 C         143.6703  184.9803   53.5916 C.3     944      M_A    0.0000
   6611 O         144.5929  185.5121   52.6409 O.3     944      M_A    0.0000
   6612 H         143.8665  186.8739   54.6449 H       944      M_A    0.0000
   6613 H         142.8620  185.6674   55.4586 H       944      M_A    0.0000
   6614 H         144.1371  184.1978   54.2071 H       944      M_A    0.0000
   6615 H         142.8651  184.4908   53.0297 H       944      M_A    0.0000
   6616 C         145.3803  184.4935   52.0584 C.3     945      M_A    0.0000
   6617 C         145.2868  184.4955   50.5355 C.3     945      M_A    0.0000
   6618 O         146.1817  185.4593   49.9804 O.3     945      M_A    0.0000
   6619 H         146.4174  184.6094   52.3910 H       945      M_A    0.0000
   6620 H         145.0173  183.5302   52.4347 H       945      M_A    0.0000
   6621 H         145.4886  183.4890   50.1416 H       945      M_A    0.0000
   6622 H         144.2743  184.7585   50.2047 H       945      M_A    0.0000
   6623 C         145.9351  186.7515   50.4962 C.3     946      M_A    0.0000
   6624 C         146.5471  187.8441   49.6245 C.3     946      M_A    0.0000
   6625 O         145.5418  188.4700   48.8272 O.3     946      M_A    0.0000
   6626 H         144.8545  186.8923   50.6058 H       946      M_A    0.0000
   6627 H         146.3795  186.8056   51.4966 H       946      M_A    0.0000
   6628 H         147.0752  188.5777   50.2505 H       946      M_A    0.0000
   6629 H         147.2964  187.4268   48.9403 H       946      M_A    0.0000
   6630 C         145.9947  189.6978   48.2939 C.3     947      M_A    0.0000
   6631 C         146.0939  189.6608   46.7718 C.3     947      M_A    0.0000
   6632 O         145.7100  190.9177   46.2145 O.3     947      M_A    0.0000
   6633 H         145.3276  190.4999   48.6272 H       947      M_A    0.0000
   6634 H         146.9887  189.8994   48.7093 H       947      M_A    0.0000
   6635 H         147.1120  189.3814   46.4645 H       947      M_A    0.0000
   6636 H         145.4256  188.8979   46.3532 H       947      M_A    0.0000
   6637 C         146.6107  191.9429   46.5814 C.3     948      M_A    0.0000
   6638 C         146.3554  193.2346   45.8103 C.3     948      M_A    0.0000
   6639 O         145.9526  194.2767   46.6989 O.3     948      M_A    0.0000
   6640 H         146.5435  192.1078   47.6620 H       948      M_A    0.0000
   6641 H         147.6262  191.5938   46.3619 H       948      M_A    0.0000
   6642 H         147.2511  193.5194   45.2399 H       948      M_A    0.0000
   6643 H         145.5518  193.1007   45.0753 H       948      M_A    0.0000
   6644 C         145.1041  195.2057   46.0556 C.3     949      M_A    0.0000
   6645 C         145.6047  196.6394   46.2047 C.3     949      M_A    0.0000
   6646 O         145.2371  197.4188   45.0665 O.3     949      M_A    0.0000
   6647 H         145.0059  194.9290   45.0004 H       949      M_A    0.0000
   6648 H         144.1109  195.1277   46.5125 H       949      M_A    0.0000
   6649 H         145.2179  197.0817   47.1340 H       949      M_A    0.0000
   6650 H         146.6987  196.6671   46.2823 H       949      M_A    0.0000
   6651 C         144.4427  198.5282   45.4341 C.3     950      M_A    0.0000
   6652 C         144.2360  199.4961   44.2728 C.3     950      M_A    0.0000
   6653 O         142.8451  199.7473   44.0722 O.3     950      M_A    0.0000
   6654 H         143.4846  198.1682   45.8240 H       950      M_A    0.0000
   6655 H         144.9549  199.0546   46.2476 H       950      M_A    0.0000
   6656 H         144.7888  200.4292   44.4535 H       950      M_A    0.0000
   6657 H         144.6326  199.0790   43.3387 H       950      M_A    0.0000
   6658 C         142.2753  200.4160   45.1790 C.3     951      M_A    0.0000
   6659 C         140.9968  201.1598   44.8044 C.3     951      M_A    0.0000
   6660 O         139.8629  200.3019   44.9325 O.3     951      M_A    0.0000
   6661 H         142.0909  199.6906   45.9785 H       951      M_A    0.0000
   6662 H         143.0103  201.1392   45.5506 H       951      M_A    0.0000
   6663 H         140.8875  202.0620   45.4232 H       951      M_A    0.0000
   6664 H         141.0331  201.5030   43.7630 H       951      M_A    0.0000
   6665 C         139.8519  199.3060   43.9300 C.3     952      M_A    0.0000
   6666 C         138.4769  199.1547   43.2861 C.3     952      M_A    0.0000
   6667 O         138.3256  200.0765   42.2067 O.3     952      M_A    0.0000
   6668 H         140.6150  199.5442   43.1813 H       952      M_A    0.0000
   6669 H         140.1314  198.3547   44.3970 H       952      M_A    0.0000
   6670 H         138.3268  198.1183   42.9510 H       952      M_A    0.0000
   6671 H         137.6793  199.3629   44.0102 H       952      M_A    0.0000
   6672 C         137.3441  201.0519   42.4932 C.3     953      M_A    0.0000
   6673 C         136.5068  201.4015   41.2665 C.3     953      M_A    0.0000
   6674 O         135.2404  201.9305   41.6592 O.3     953      M_A    0.0000
   6675 H         136.7130  200.6936   43.3135 H       953      M_A    0.0000
   6676 H         137.8582  201.9553   42.8408 H       953      M_A    0.0000
   6677 H         137.0525  202.1064   40.6229 H       953      M_A    0.0000
   6678 H         136.3154  200.5108   40.6550 H       953      M_A    0.0000
   6679 C         135.3880  203.0268   42.5386 C.3     954      M_A    0.0000
   6680 C         134.9834  204.3452   41.8857 C.3     954      M_A    0.0000
   6681 O         134.0275  205.0313   42.6940 O.3     954      M_A    0.0000
   6682 H         134.8031  202.8388   43.4453 H       954      M_A    0.0000
   6683 H         136.4428  203.0848   42.8308 H       954      M_A    0.0000
   6684 H         135.8719  204.9665   41.7029 H       954      M_A    0.0000
   6685 H         134.5213  204.1724   40.9057 H       954      M_A    0.0000
   6686 C         133.3340  206.0145   41.9528 C.3     955      M_A    0.0000
   6687 C         133.6456  207.4265   42.4398 C.3     955      M_A    0.0000
   6688 O         133.9699  208.2755   41.3389 O.3     955      M_A    0.0000
   6689 H         133.5778  205.8997   40.8912 H       955      M_A    0.0000
   6690 H         132.2601  205.8285   42.0683 H       955      M_A    0.0000
   6691 H         132.7980  207.8250   43.0158 H       955      M_A    0.0000
   6692 H         134.5070  207.4263   43.1194 H       955      M_A    0.0000
   6693 C         133.2608  207.9054   40.1740 C.3     956      M_A    0.0000
   6694 C         132.6814  209.1148   39.4461 C.3     956      M_A    0.0000
   6695 O         133.6075  209.6070   38.4776 O.3     956      M_A    0.0000
   6696 H         133.9243  207.3305   39.5192 H       956      M_A    0.0000
   6697 H         132.4390  207.2456   40.4750 H       956      M_A    0.0000
   6698 H         131.7192  208.8537   38.9825 H       956      M_A    0.0000
   6699 H         132.4736  209.9326   40.1473 H       956      M_A    0.0000
   6700 C         133.4668  211.0004   38.2888 C.3     957      M_A    0.0000
   6701 C         134.1029  211.4701   36.9838 C.3     957      M_A    0.0000
   6702 O         133.1040  211.6709   35.9840 O.3     957      M_A    0.0000
   6703 H         132.4036  211.2605   38.3263 H       957      M_A    0.0000
   6704 H         133.9614  211.5056   39.1263 H       957      M_A    0.0000
   6705 H         134.6875  212.3855   37.1546 H       957      M_A    0.0000
   6706 H         134.8073  210.7221   36.5990 H       957      M_A    0.0000
   6707 C         132.4734  212.9272   36.1278 C.3     958      M_A    0.0000
   6708 C         131.5956  213.2698   34.9277 C.3     958      M_A    0.0000
   6709 O         130.2948  212.7020   35.0808 O.3     958      M_A    0.0000
   6710 H         131.8926  212.9314   37.0564 H       958      M_A    0.0000
   6711 H         133.2563  213.6883   36.2232 H       958      M_A    0.0000
   6712 H         131.5428  214.3600   34.7950 H       958      M_A    0.0000
   6713 H         132.0229  212.8669   34.0010 H       958      M_A    0.0000
   6714 C         129.9736  211.8468   34.0026 C.3     959      M_A    0.0000
   6715 C         128.6528  211.1156   34.2235 C.3     959      M_A    0.0000
   6716 O         127.6115  211.7204   33.4569 O.3     959      M_A    0.0000
   6717 H         129.9516  212.4317   33.0769 H       959      M_A    0.0000
   6718 H         130.7770  211.1072   33.9083 H       959      M_A    0.0000
   6719 H         128.7633  210.0497   33.9771 H       959      M_A    0.0000
   6720 H         128.3519  211.1584   35.2778 H       959      M_A    0.0000
   6721 C         126.4150  210.9720   33.5285 C.3     960      M_A    0.0000
   6722 C         125.2055  211.8508   33.8330 C.3     960      M_A    0.0000
   6723 O         124.0740  211.4256   33.0735 O.3     960      M_A    0.0000
   6724 H         126.2794  210.4243   32.5898 H       960      M_A    0.0000
   6725 H         126.5272  210.2331   34.3302 H       960      M_A    0.0000
   6726 H         124.9903  211.8400   34.9112 H       960      M_A    0.0000
   6727 H         125.4040  212.8971   33.5690 H       960      M_A    0.0000
   6728 C         122.9972  212.3322   33.1979 C.3     961      M_A    0.0000
   6729 C         121.6709  211.7106   32.7706 C.3     961      M_A    0.0000
   6730 O         120.6150  212.1463   33.6268 O.3     961      M_A    0.0000
   6731 H         122.9504  212.6918   34.2314 H       961      M_A    0.0000
   6732 H         123.2074  213.1953   32.5559 H       961      M_A    0.0000
   6733 H         121.4593  211.9534   31.7193 H       961      M_A    0.0000
   6734 H         121.7128  210.6159   32.8315 H       961      M_A    0.0000
   6735 C         119.9254  213.2503   33.0768 C.3     962      M_A    0.0000
   6736 C         118.4576  213.2755   33.4926 C.3     962      M_A    0.0000
   6737 O         118.0686  214.5943   33.8763 O.3     962      M_A    0.0000
   6738 H         120.4357  214.1734   33.3717 H       962      M_A    0.0000
   6739 H         119.9833  213.1740   31.9850 H       962      M_A    0.0000
   6740 H         117.8257  212.8934   32.6780 H       962      M_A    0.0000
   6741 H         118.2820  212.6178   34.3531 H       962      M_A    0.0000
   6742 C         116.6636  214.7128   33.9691 C.3     963      M_A    0.0000
   6743 C         116.0537  213.6327   34.8577 C.3     963      M_A    0.0000
   6744 O         114.6616  213.8770   35.0585 O.3     963      M_A    0.0000
   6745 H         116.4128  215.7141   34.3353 H       963      M_A    0.0000
   6746 H         116.2498  214.6161   32.9588 H       963      M_A    0.0000
   6747 H         116.2263  212.6390   34.4199 H       963      M_A    0.0000
   6748 H         116.5310  213.6213   35.8455 H       963      M_A    0.0000
   6749 C         113.8915  213.4032   33.9725 C.3     964      M_A    0.0000
   6750 C         112.6044  212.7258   34.4336 C.3     964      M_A    0.0000
   6751 O         111.4644  213.4527   33.9755 O.3     964      M_A    0.0000
   6752 H         113.6785  214.2369   33.2948 H       964      M_A    0.0000
   6753 H         114.4978  212.6750   33.4217 H       964      M_A    0.0000
   6754 H         112.5793  211.6827   34.0869 H       964      M_A    0.0000
   6755 H         112.5514  212.6878   35.5288 H       964      M_A    0.0000
   6756 C         110.4424  213.4804   34.9510 C.3     965      M_A    0.0000
   6757 C         109.5732  214.7292   34.8366 C.3     965      M_A    0.0000
   6758 O         108.3293  214.4175   34.2095 O.3     965      M_A    0.0000
   6759 H         109.8398  212.5700   34.8633 H       965      M_A    0.0000
   6760 H         110.9184  213.4689   35.9382 H       965      M_A    0.0000
   6761 H         109.4196  215.1769   35.8291 H       965      M_A    0.0000
   6762 H         110.0660  215.4959   34.2258 H       965      M_A    0.0000
   6763 C         107.6893  215.5800   33.7239 C.3     966      M_A    0.0000
   6764 C         106.2515  215.3062   33.2925 C.3     966      M_A    0.0000
   6765 O         105.3334  215.9706   34.1606 O.3     966      M_A    0.0000
   6766 H         107.7297  216.3582   34.4935 H       966      M_A    0.0000
   6767 H         108.2566  215.9403   32.8581 H       966      M_A    0.0000
   6768 H         106.1046  215.6109   32.2463 H       966      M_A    0.0000
   6769 H         106.0264  214.2332   33.3354 H       966      M_A    0.0000
   6770 C         104.1785  215.1887   34.3881 C.3     967      M_A    0.0000
   6771 C         102.9748  215.7003   33.6024 C.3     967      M_A    0.0000
   6772 O         102.1488  214.6124   33.1875 O.3     967      M_A    0.0000
   6773 H         104.3987  214.1452   34.1390 H       967      M_A    0.0000
   6774 H         103.9477  215.2322   35.4587 H       967      M_A    0.0000
   6775 H         102.4086  216.4252   34.2048 H       967      M_A    0.0000
   6776 H         103.2941  216.2337   32.6983 H       967      M_A    0.0000
   6777 C         100.9793  214.5213   33.9754 C.3     968      M_A    0.0000
   6778 C          99.7745  214.0560   33.1629 C.3     968      M_A    0.0000
   6779 O          99.4047  212.7276   33.5322 O.3     968      M_A    0.0000
   6780 H         101.1690  213.8509   34.8204 H       968      M_A    0.0000
   6781 H         100.7690  215.5168   34.3828 H       968      M_A    0.0000
   6782 H          98.9360  214.7553   33.2930 H       968      M_A    0.0000
   6783 H         100.0043  214.0468   32.0901 H       968      M_A    0.0000
   6784 C         100.3589  211.7834   33.0907 C.3     969      M_A    0.0000
   6785 C          99.7502  210.7496   32.1480 C.3     969      M_A    0.0000
   6786 O          99.9376  211.1408   30.7880 O.3     969      M_A    0.0000
   6787 H         101.1907  212.3124   32.6134 H       969      M_A    0.0000
   6788 H         100.7563  211.2683   33.9728 H       969      M_A    0.0000
   6789 H         100.1829  209.7577   32.3421 H       969      M_A    0.0000
   6790 H          98.6703  210.6528   32.3161 H       969      M_A    0.0000
   6791 C          98.7068  211.2207   30.0984 C.3     970      M_A    0.0000
   6792 C          98.0601  212.5959   30.2355 C.3     970      M_A    0.0000
   6793 O          96.7387  212.5836   29.6953 O.3     970      M_A    0.0000
   6794 H          98.8692  210.9633   29.0463 H       970      M_A    0.0000
   6795 H          98.0329  210.4680   30.5234 H       970      M_A    0.0000
   6796 H          98.0586  212.9112   31.2888 H       970      M_A    0.0000
   6797 H          98.6320  213.3550   29.6874 H       970      M_A    0.0000
   6798 C          95.8001  212.1016   30.6354 C.3     971      M_A    0.0000
   6799 C          94.6174  213.0508   30.8042 C.3     971      M_A    0.0000
   6800 O          93.3992  212.3161   30.9232 O.3     971      M_A    0.0000
   6801 H          95.4663  211.1048   30.3281 H       971      M_A    0.0000
   6802 H          96.3116  211.9975   31.5992 H       971      M_A    0.0000
   6803 H          94.7767  213.7046   31.6738 H       971      M_A    0.0000
   6804 H          94.5182  213.7129   29.9350 H       971      M_A    0.0000
   6805 C          92.2765  213.1278   30.6447 C.3     972      M_A    0.0000
   6806 C          90.9691  212.4634   31.0659 C.3     972      M_A    0.0000
   6807 O          90.0160  213.4462   31.4706 O.3     972      M_A    0.0000
   6808 H          92.4046  214.0968   31.1388 H       972      M_A    0.0000
   6809 H          92.2506  213.3077   29.5638 H       972      M_A    0.0000
   6810 H          90.5789  211.8410   30.2479 H       972      M_A    0.0000
   6811 H          91.1276  211.7896   31.9171 H       972      M_A    0.0000
   6812 C          88.7070  212.9148   31.5023 C.3     973      M_A    0.0000
   6813 C          87.6433  214.0004   31.3676 C.3     973      M_A    0.0000
   6814 O          86.5847  213.5610   30.5166 O.3     973      M_A    0.0000
   6815 H          88.6071  212.1633   30.7120 H       973      M_A    0.0000
   6816 H          88.5735  212.4050   32.4633 H       973      M_A    0.0000
   6817 H          87.2659  214.2872   32.3597 H       973      M_A    0.0000
   6818 H          88.0653  214.9107   30.9236 H       973      M_A    0.0000
   6819 C          85.9700  214.6467   29.8530 C.3     974      M_A    0.0000
   6820 C          84.5120  214.3578   29.5082 C.3     974      M_A    0.0000
   6821 O          83.6889  215.4770   29.8367 O.3     974      M_A    0.0000
   6822 H          86.0588  215.5430   30.4763 H       974      M_A    0.0000
   6823 H          86.5237  214.8319   28.9254 H       974      M_A    0.0000
   6824 H          84.4190  214.0912   28.4456 H       974      M_A    0.0000
   6825 H          84.1376  213.4968   30.0759 H       974      M_A    0.0000
   6826 C          82.3265  215.1106   29.9187 C.3     975      M_A    0.0000
   6827 C          81.3995  216.3167   29.7996 C.3     975      M_A    0.0000
   6828 O          80.5791  216.2044   28.6368 O.3     975      M_A    0.0000
   6829 H          82.1092  214.3670   29.1446 H       975      M_A    0.0000
   6830 H          82.1640  214.6332   30.8918 H       975      M_A    0.0000
   6831 H          80.7912  216.4191   30.7098 H       975      M_A    0.0000
   6832 H          81.9747  217.2464   29.7073 H       975      M_A    0.0000
   6833 C          80.1265  217.4695   28.1990 C.3     976      M_A    0.0000
   6834 C          78.6209  217.6357   28.3827 C.3     976      M_A    0.0000
   6835 O          78.3359  218.8118   29.1400 O.3     976      M_A    0.0000
   6836 H          80.6784  218.2507   28.7324 H       976      M_A    0.0000
   6837 H          80.3661  217.5630   27.1336 H       976      M_A    0.0000
   6838 H          78.1195  217.6587   27.4045 H       976      M_A    0.0000
   6839 H          78.1954  216.7834   28.9270 H       976      M_A    0.0000
   6840 C          77.9436  219.8822   28.3050 C.3     977      M_A    0.0000
   6841 C          76.6047  220.4793   28.7280 C.3     977      M_A    0.0000
   6842 O          76.5858  221.8863   28.4874 O.3     977      M_A    0.0000
   6843 H          78.7325  220.6419   28.3035 H       977      M_A    0.0000
   6844 H          77.8528  219.4966   27.2831 H       977      M_A    0.0000
   6845 H          75.7810  219.9730   28.2044 H       977      M_A    0.0000
   6846 H          76.4281  220.3270   29.8001 H       977      M_A    0.0000
   6847 C          75.2697  222.3994   28.5224 C.3     978      M_A    0.0000
   6848 C          74.4958  221.9123   29.7439 C.3     978      M_A    0.0000
   6849 O          73.1830  222.4727   29.7608 O.3     978      M_A    0.0000
   6850 H          75.3117  223.4934   28.4915 H       978      M_A    0.0000
   6851 H          74.7522  222.0619   27.6171 H       978      M_A    0.0000
   6852 H          74.4618  220.8134   29.7582 H       978      M_A    0.0000
   6853 H          74.9951  222.2171   30.6721 H       978      M_A    0.0000
   6854 C          72.4155  222.0254   28.6619 C.3     979      M_A    0.0000
   6855 C          70.9167  222.1459   28.9212 C.3     979      M_A    0.0000
   6856 O          70.2982  222.9503   27.9171 O.3     979      M_A    0.0000
   6857 H          72.7086  222.5876   27.7688 H       979      M_A    0.0000
   6858 H          72.6612  220.9719   28.4857 H       979      M_A    0.0000
   6859 H          70.4589  221.1476   28.9720 H       979      M_A    0.0000
   6860 H          70.7231  222.6233   29.8899 H       979      M_A    0.0000
   6861 C          69.1583  223.6180   28.4189 C.3     980      M_A    0.0000
   6862 C          68.7146  224.7596   27.5088 C.3     980      M_A    0.0000
   6863 O          67.3929  224.5269   27.0222 O.3     980      M_A    0.0000
   6864 H          68.3522  222.8905   28.5620 H       980      M_A    0.0000
   6865 H          69.4136  224.0277   29.4028 H       980      M_A    0.0000
   6866 H          68.7811  225.7184   28.0429 H       980      M_A    0.0000
   6867 H          69.3752  224.8461   26.6371 H       980      M_A    0.0000
   6868 C          67.0234  225.4844   26.0508 C.3     981      M_A    0.0000
   6869 C          65.5381  225.4119   25.7091 C.3     981      M_A    0.0000
   6870 O          64.9200  226.6857   25.8912 O.3     981      M_A    0.0000
   6871 H          67.2983  226.4820   26.4096 H       981      M_A    0.0000
   6872 H          67.6060  225.2863   25.1438 H       981      M_A    0.0000
   6873 H          65.4026  225.0450   24.6815 H       981      M_A    0.0000
   6874 H          65.0195  224.6987   26.3618 H       981      M_A    0.0000
   6875 C          63.5848  226.5539   26.3349 C.3     982      M_A    0.0000
   6876 C          62.5793  226.8816   25.2350 C.3     982      M_A    0.0000
   6877 O          61.3821  226.1238   25.4095 O.3     982      M_A    0.0000
   6878 H          63.4342  225.5393   26.7187 H       982      M_A    0.0000
   6879 H          63.4368  227.2492   27.1692 H       982      M_A    0.0000
   6880 H          62.3708  227.9610   25.2207 H       982      M_A    0.0000
   6881 H          62.9843  226.6329   24.2461 H       982      M_A    0.0000
   6882 C          60.2418  226.8610   25.0181 C.3     983      M_A    0.0000
   6883 C          58.9529  226.2635   25.5749 C.3     983      M_A    0.0000
   6884 O          58.0011  227.2920   25.8468 O.3     983      M_A    0.0000
   6885 H          60.3636  227.9024   25.3345 H       983      M_A    0.0000
   6886 H          60.1933  226.8507   23.9232 H       983      M_A    0.0000
   6887 H          58.5474  225.5179   24.8759 H       983      M_A    0.0000
   6888 H          59.1410  225.7327   26.5165 H       983      M_A    0.0000
   6889 C          56.7687  227.0396   25.2029 C.3     984      M_A    0.0000
   6890 C          55.7071  228.0722   25.5699 C.3     984      M_A    0.0000
   6891 O          55.0221  228.5228   24.4014 O.3     984      M_A    0.0000
   6892 H          56.9312  227.0073   24.1203 H       984      M_A    0.0000
   6893 H          56.4220  226.0480   25.5157 H       984      M_A    0.0000
   6894 H          55.0074  227.6518   26.3065 H       984      M_A    0.0000
   6895 H          56.1617  228.9513   26.0437 H       984      M_A    0.0000
   6896 C          54.0151  229.4611   24.7216 C.3     985      M_A    0.0000
   6897 C          52.8652  229.4339   23.7191 C.3     985      M_A    0.0000
   6898 O          51.6385  229.7931   24.3548 O.3     985      M_A    0.0000
   6899 H          53.6575  229.2683   25.7387 H       985      M_A    0.0000
   6900 H          54.4691  230.4586   24.7134 H       985      M_A    0.0000
   6901 H          53.0854  230.0979   22.8709 H       985      M_A    0.0000
   6902 H          52.7351  228.4291   23.2981 H       985      M_A    0.0000
   6903 C          51.2218  231.0901   23.9794 C.3     986      M_A    0.0000
   6904 C          49.7034  231.1975   23.8740 C.3     986      M_A    0.0000
   6905 O          49.2458  232.4151   24.4621 O.3     986      M_A    0.0000
   6906 H          51.6205  231.8152   24.6969 H       986      M_A    0.0000
   6907 H          51.6619  231.3156   23.0012 H       986      M_A    0.0000
   6908 H          49.3894  231.1181   22.8233 H       986      M_A    0.0000
   6909 H          49.2137  230.3717   24.4052 H       986      M_A    0.0000
   6910 C          47.8354  232.4529   24.5417 C.3     987      M_A    0.0000
   6911 C          47.2709  233.7978   24.0937 C.3     987      M_A    0.0000
   6912 O          45.9787  233.6291   23.5110 O.3     987      M_A    0.0000
   6913 H          47.4217  231.6323   23.9459 H       987      M_A    0.0000
   6914 H          47.5521  232.2797   25.5862 H       987      M_A    0.0000
   6915 H          47.2391  234.4974   24.9413 H       987      M_A    0.0000
   6916 H          47.9150  234.2611   23.3359 H       987      M_A    0.0000
   6917 C          45.5153  234.8282   22.9243 C.3     988      M_A    0.0000
   6918 C          44.0213  234.7779   22.6185 C.3     988      M_A    0.0000
   6919 O          43.2875  235.5340   23.5817 O.3     988      M_A    0.0000
   6920 H          45.7550  235.6664   23.5873 H       988      M_A    0.0000
   6921 H          46.0641  234.9791   21.9876 H       988      M_A    0.0000
   6922 H          43.8306  235.1385   21.5974 H       988      M_A    0.0000
   6923 H          43.6474  233.7470   22.6560 H       988      M_A    0.0000
   6924 C          41.8944  235.3530   23.4289 C.3     989      M_A    0.0000
   6925 C          41.4502  233.9498   23.8311 C.3     989      M_A    0.0000
   6926 O          40.0527  233.7801   23.5943 O.3     989      M_A    0.0000
   6927 H          41.3687  236.1164   24.0124 H       989      M_A    0.0000
   6928 H          41.6473  235.5142   22.3733 H       989      M_A    0.0000
   6929 H          42.0415  233.1955   23.2922 H       989      M_A    0.0000
   6930 H          41.6261  233.7734   24.8996 H       989      M_A    0.0000
   6931 C          39.6542  232.4384   23.7890 C.3     990      M_A    0.0000
   6932 C          39.9381  231.9553   25.2082 C.3     990      M_A    0.0000
   6933 O          40.0863  230.5357   25.2334 O.3     990      M_A    0.0000
   6934 H          38.5911  232.3422   23.5439 H       990      M_A    0.0000
   6935 H          40.2148  231.8146   23.0833 H       990      M_A    0.0000
   6936 H          40.8304  232.4576   25.6087 H       990      M_A    0.0000
   6937 H          39.1116  232.2113   25.8828 H       990      M_A    0.0000
   6938 C          40.6624  230.0545   24.0361 C.3     991      M_A    0.0000
   6939 C          41.9929  230.7339   23.7256 C.3     991      M_A    0.0000
   6940 O          43.0832  229.8738   24.0560 O.3     991      M_A    0.0000
   6941 H          40.7807  228.9680   24.1079 H       991      M_A    0.0000
   6942 H          39.9610  230.2582   23.2189 H       991      M_A    0.0000
   6943 H          42.0274  231.0355   22.6688 H       991      M_A    0.0000
   6944 H          42.1104  231.6535   24.3124 H       991      M_A    0.0000
   6945 C          44.3019  230.5860   24.1228 C.3     992      M_A    0.0000
   6946 C          45.3660  229.8301   24.9130 C.3     992      M_A    0.0000
   6947 O          46.0877  230.7229   25.7616 O.3     992      M_A    0.0000
   6948 H          44.6449  230.8034   23.1056 H       992      M_A    0.0000
   6949 H          44.1059  231.5437   24.6183 H       992      M_A    0.0000
   6950 H          44.9037  229.0162   25.4899 H       992      M_A    0.0000
   6951 H          46.0924  229.3570   24.2405 H       992      M_A    0.0000
   6952 C          47.1561  230.0668   26.4134 C.3     993      M_A    0.0000
   6953 C          48.3376  231.0001   26.6608 C.3     993      M_A    0.0000
   6954 O          48.9139  230.7490   27.9425 O.3     993      M_A    0.0000
   6955 H          46.7911  229.6341   27.3509 H       993      M_A    0.0000
   6956 H          47.4851  229.2405   25.7729 H       993      M_A    0.0000
   6957 H          49.0822  230.8905   25.8592 H       993      M_A    0.0000
   6958 H          48.0190  232.0498   26.6438 H       993      M_A    0.0000
   6959 C          49.2313  229.3820   28.1080 C.3     994      M_A    0.0000
   6960 C          50.2180  228.8899   27.0533 C.3     994      M_A    0.0000
   6961 O          50.5097  227.5061   27.2478 O.3     994      M_A    0.0000
   6962 H          49.6228  229.2259   29.1189 H       994      M_A    0.0000
   6963 H          48.3022  228.8072   28.0200 H       994      M_A    0.0000
   6964 H          49.8205  229.0769   26.0453 H       994      M_A    0.0000
   6965 H          51.1664  229.4377   27.1170 H       994      M_A    0.0000
   6966 C          51.2578  226.9788   26.1711 C.3     995      M_A    0.0000
   6967 C          52.7077  226.7046   26.5592 C.3     995      M_A    0.0000
   6968 O          52.8711  225.3423   26.9535 O.3     995      M_A    0.0000
   6969 H          50.7674  226.0699   25.8066 H       995      M_A    0.0000
   6970 H          51.2413  227.7133   25.3578 H       995      M_A    0.0000
   6971 H          53.3787  226.9634   25.7275 H       995      M_A    0.0000
   6972 H          53.0123  227.3308   27.4071 H       995      M_A    0.0000
   6973 C          53.9445  224.7306   26.2676 C.3     996      M_A    0.0000
   6974 C          55.1912  224.6140   27.1395 C.3     996      M_A    0.0000
   6975 O          55.5723  223.2462   27.2876 O.3     996      M_A    0.0000
   6976 H          53.6231  223.7487   25.9040 H       996      M_A    0.0000
   6977 H          54.1803  225.3471   25.3925 H       996      M_A    0.0000
   6978 H          56.0092  225.2132   26.7143 H       996      M_A    0.0000
   6979 H          55.0063  225.0141   28.1443 H       996      M_A    0.0000
   6980 C          56.9101  223.1267   27.7267 C.3     997      M_A    0.0000
   6981 C          57.6341  221.9652   27.0522 C.3     997      M_A    0.0000
   6982 O          59.0484  222.1362   27.1438 O.3     997      M_A    0.0000
   6983 H          57.4306  224.0737   27.5489 H       997      M_A    0.0000
   6984 H          56.8954  222.9547   28.8091 H       997      M_A    0.0000
   6985 H          57.3171  221.0108   27.4967 H       997      M_A    0.0000
   6986 H          57.3783  221.9088   25.9867 H       997      M_A    0.0000
   6987 C          59.7285  221.3341   26.1999 C.3     998      M_A    0.0000
   6988 C          61.0573  220.8137   26.7400 C.3     998      M_A    0.0000
   6989 O          61.1792  219.4113   26.5028 O.3     998      M_A    0.0000
   6990 H          59.0755  220.5094   25.8951 H       998      M_A    0.0000
   6991 H          59.9224  221.9483   25.3131 H       998      M_A    0.0000
   6992 H          61.8932  221.3693   26.2910 H       998      M_A    0.0000
   6993 H          61.1294  220.9711   27.8234 H       998      M_A    0.0000
   6994 C          62.5088  219.0542   26.1842 C.3     999      M_A    0.0000
   6995 C          63.3338  218.7431   27.4294 C.3     999      M_A    0.0000
   6996 O          64.1329  217.5785   27.2223 O.3     999      M_A    0.0000
   6997 H          62.4949  218.2022   25.4961 H       999      M_A    0.0000
   6998 H          62.9673  219.8986   25.6569 H       999      M_A    0.0000
   6999 H          63.9534  219.6101   27.7005 H       999      M_A    0.0000
   7000 H          62.6844  218.5469   28.2917 H       999      M_A    0.0000
   7001 C          64.7640  217.1650   28.4171 C.3    1000      M_A    0.0000
   7002 C          65.7271  216.0043   28.1858 C.3    1000      M_A    0.0000
   7003 O          67.0789  216.4389   28.3324 O.3    1000      M_A    0.0000
   7004 H          65.2782  218.0221   28.8648 H      1000      M_A    0.0000
   7005 H          63.9837  216.8441   29.1168 H      1000      M_A    0.0000
   7006 H          65.4963  215.1771   28.8724 H      1000      M_A    0.0000
   7007 H          65.6197  215.6014   27.1710 H      1000      M_A    0.0000
   7008 C          67.9144  215.3893   28.7763 C.3    1001      M_A    0.0000
   7009 C          68.6609  214.7233   27.6242 C.3    1001      M_A    0.0000
   7010 O          69.9921  214.3894   28.0169 O.3    1001      M_A    0.0000
   7011 H          68.6113  215.7797   29.5256 H      1001      M_A    0.0000
   7012 H          67.2828  214.6412   29.2691 H      1001      M_A    0.0000
   7013 H          68.1114  213.8357   27.2787 H      1001      M_A    0.0000
   7014 H          68.7321  215.3968   26.7611 H      1001      M_A    0.0000
   7015 C          70.2314  213.0011   27.9058 C.3    1002      M_A    0.0000
   7016 C          71.7183  212.6831   27.7794 C.3    1002      M_A    0.0000
   7017 O          72.1267  211.7823   28.8088 O.3    1002      M_A    0.0000
   7018 H          69.7903  212.4922   28.7695 H      1002      M_A    0.0000
   7019 H          69.7143  212.6408   27.0091 H      1002      M_A    0.0000
   7020 H          71.9358  212.2753   26.7818 H      1002      M_A    0.0000
   7021 H          72.3241  213.5924   27.8792 H      1002      M_A    0.0000
   7022 C          73.1156  210.8842   28.3479 C.3    1003      M_A    0.0000
   7023 C          74.5136  211.2822   28.8119 C.3    1003      M_A    0.0000
   7024 O          75.2528  210.1304   29.2181 O.3    1003      M_A    0.0000
   7025 H          72.8619  209.8720   28.6804 H      1003      M_A    0.0000
   7026 H          73.0909  210.8891   27.2522 H      1003      M_A    0.0000
   7027 H          75.0357  211.8319   28.0155 H      1003      M_A    0.0000
   7028 H          74.4633  211.9606   29.6727 H      1003      M_A    0.0000
   7029 C          75.2224  209.1211   28.2296 C.3    1004      M_A    0.0000
   7030 C          76.6230  208.7108   27.7846 C.3    1004      M_A    0.0000
   7031 O          77.1623  207.7299   28.6704 O.3    1004      M_A    0.0000
   7032 H          74.6619  208.2619   28.6133 H      1004      M_A    0.0000
   7033 H          74.6761  209.5134   27.3641 H      1004      M_A    0.0000
   7034 H          76.5997  208.3441   26.7483 H      1004      M_A    0.0000
   7035 H          77.3048  209.5704   27.7920 H      1004      M_A    0.0000
   7036 C          78.1405  206.9364   28.0297 C.3    1005      M_A    0.0000
   7037 C          79.5563  207.3202   28.4497 C.3    1005      M_A    0.0000
   7038 O          80.1311  206.2984   29.2642 O.3    1005      M_A    0.0000
   7039 H          77.9383  205.8808   28.2401 H      1005      M_A    0.0000
   7040 H          78.0390  207.0842   26.9485 H      1005      M_A    0.0000
   7041 H          80.1744  207.5194   27.5625 H      1005      M_A    0.0000
   7042 H          79.5538  208.2465   29.0377 H      1005      M_A    0.0000
   7043 C          81.4945  206.5560   29.5317 C.3    1006      M_A    0.0000
   7044 C          82.1443  205.4328   30.3343 C.3    1006      M_A    0.0000
   7045 O          83.3601  205.0135   29.7147 O.3    1006      M_A    0.0000
   7046 H          82.0197  206.7201   28.5847 H      1006      M_A    0.0000
   7047 H          81.5548  207.4854   30.1095 H      1006      M_A    0.0000
   7048 H          82.3148  205.7568   31.3711 H      1006      M_A    0.0000
   7049 H          81.4850  204.5576   30.3896 H      1006      M_A    0.0000
   7050 C          84.3021  206.0655   29.6598 C.3    1007      M_A    0.0000
   7051 C          85.5193  205.7927   30.5385 C.3    1007      M_A    0.0000
   7052 O          86.3971  204.8634   29.9031 O.3    1007      M_A    0.0000
   7053 H          84.5957  206.2282   28.6173 H      1007      M_A    0.0000
   7054 H          83.8084  206.9786   30.0115 H      1007      M_A    0.0000
   7055 H          86.0361  206.7342   30.7739 H      1007      M_A    0.0000
   7056 H          85.2198  205.3570   31.4999 H      1007      M_A    0.0000
   7057 C          87.1086  204.0931   30.8505 C.3    1008      M_A    0.0000
   7058 C          86.9010  202.5955   30.6451 C.3    1008      M_A    0.0000
   7059 O          88.1574  201.9231   30.5600 O.3    1008      M_A    0.0000
   7060 H          88.1706  204.3557   30.7994 H      1008      M_A    0.0000
   7061 H          86.7469  204.3677   31.8480 H      1008      M_A    0.0000
   7062 H          86.2811  202.1838   31.4546 H      1008      M_A    0.0000
   7063 H          86.3591  202.3986   29.7117 H      1008      M_A    0.0000
   7064 C          89.0022  202.2670   31.6394 C.3    1009      M_A    0.0000
   7065 C          89.6650  201.0420   32.2625 C.3    1009      M_A    0.0000
   7066 O          90.9192  200.7776   31.6342 O.3    1009      M_A    0.0000
   7067 H          89.7503  202.9875   31.2921 H      1009      M_A    0.0000
   7068 H          88.3907  202.7649   32.4006 H      1009      M_A    0.0000
   7069 H          89.7829  201.1844   33.3464 H      1009      M_A    0.0000
   7070 H          89.0393  200.1497   32.1353 H      1009      M_A    0.0000
   7071 C          91.1881  199.3914   31.5791 C.3    1010      M_A    0.0000
   7072 C          92.6175  199.1013   31.1309 C.3    1010      M_A    0.0000
   7073 O          93.2214  198.1283   31.9832 O.3    1010      M_A    0.0000
   7074 H          90.9837  198.9485   32.5596 H      1010      M_A    0.0000
   7075 H          90.4932  198.9417   30.8608 H      1010      M_A    0.0000
   7076 H          92.6272  198.7744   30.0812 H      1010      M_A    0.0000
   7077 H          93.2350  200.0070   31.1772 H      1010      M_A    0.0000
   7078 C          92.5224  196.9008   31.9435 C.3    1011      M_A    0.0000
   7079 C          93.3605  195.7823   31.3313 C.3    1011      M_A    0.0000
   7080 O          94.2921  195.2749   32.2864 O.3    1011      M_A    0.0000
   7081 H          92.1973  196.6418   32.9568 H      1011      M_A    0.0000
   7082 H          91.6232  197.0446   31.3336 H      1011      M_A    0.0000
   7083 H          92.7074  194.9855   30.9473 H      1011      M_A    0.0000
   7084 H          93.9369  196.1487   30.4727 H      1011      M_A    0.0000
   7085 C          95.3172  196.2094   32.5562 C.3    1012      M_A    0.0000
   7086 C          96.6367  195.5288   32.9078 C.3    1012      M_A    0.0000
   7087 O          97.6146  195.7815   31.8988 O.3    1012      M_A    0.0000
   7088 H          95.4324  196.8728   31.6923 H      1012      M_A    0.0000
   7089 H          94.9979  196.8240   33.4057 H      1012      M_A    0.0000
   7090 H          96.9853  195.8639   33.8953 H      1012      M_A    0.0000
   7091 H          96.5109  194.4412   32.9782 H      1012      M_A    0.0000
   7092 C          98.5448  194.7220   31.8032 C.3    1013      M_A    0.0000
   7093 C          99.9220  195.1181   32.3271 C.3    1013      M_A    0.0000
   7094 O         100.4933  194.0536   33.0876 O.3    1013      M_A    0.0000
   7095 H          98.1524  193.8523   32.3410 H      1013      M_A    0.0000
   7096 H          98.6334  194.4458   30.7463 H      1013      M_A    0.0000
   7097 H         100.5761  195.4093   31.4927 H      1013      M_A    0.0000
   7098 H          99.8548  195.9931   32.9857 H      1013      M_A    0.0000
   7099 C         100.2466  192.7985   32.4870 C.3    1014      M_A    0.0000
   7100 C         101.5348  192.1104   32.0451 C.3    1014      M_A    0.0000
   7101 O         101.9914  191.2084   33.0529 O.3    1014      M_A    0.0000
   7102 H          99.6837  192.1719   33.1870 H      1014      M_A    0.0000
   7103 H          99.6136  192.9643   31.6078 H      1014      M_A    0.0000
   7104 H         101.3797  191.5941   31.0868 H      1014      M_A    0.0000
   7105 H         102.3329  192.8436   31.8744 H      1014      M_A    0.0000
   7106 C         102.9515  190.3058   32.5426 C.3    1015      M_A    0.0000
   7107 C         104.3737  190.7013   32.9289 C.3    1015      M_A    0.0000
   7108 O         105.0632  189.5914   33.5038 O.3    1015      M_A    0.0000
   7109 H         102.7135  189.2955   32.8922 H      1015      M_A    0.0000
   7110 H         102.8677  190.3068   31.4498 H      1015      M_A    0.0000
   7111 H         104.9094  191.0946   32.0530 H      1015      M_A    0.0000
   7112 H         104.3685  191.5066   33.6740 H      1015      M_A    0.0000
   7113 C         106.3281  189.9720   34.0059 C.3    1016      M_A    0.0000
   7114 C         107.1714  188.7667   34.4109 C.3    1016      M_A    0.0000
   7115 O         108.3592  188.6991   33.6219 O.3    1016      M_A    0.0000
   7116 H         106.8428  190.5800   33.2542 H      1016      M_A    0.0000
   7117 H         106.1649  190.6028   34.8873 H      1016      M_A    0.0000
   7118 H         107.4063  188.8112   35.4842 H      1016      M_A    0.0000
   7119 H         106.6197  187.8313   34.2549 H      1016      M_A    0.0000
   7120 C         109.0637  187.4955   33.8499 C.3    1017      M_A    0.0000
   7121 C         110.5660  187.6612   33.6408 C.3    1017      M_A    0.0000
   7122 O         111.2925  186.8660   34.5777 O.3    1017      M_A    0.0000
   7123 H         108.8425  187.1380   34.8612 H      1017      M_A    0.0000
   7124 H         108.6880  186.7461   33.1438 H      1017      M_A    0.0000
   7125 H         110.8356  187.4058   32.6058 H      1017      M_A    0.0000
   7126 H         110.8704  188.7047   33.7899 H      1017      M_A    0.0000
   7127 C         112.1434  185.9458   33.9250 C.3    1018      M_A    0.0000
   7128 C         113.1630  185.3303   34.8789 C.3    1018      M_A    0.0000
   7129 O         112.5100  184.5122   35.8495 O.3    1018      M_A    0.0000
   7130 H         111.5332  185.1726   33.4460 H      1018      M_A    0.0000
   7131 H         112.6779  186.4837   33.1337 H      1018      M_A    0.0000
   7132 H         113.9140  184.7590   34.3145 H      1018      M_A    0.0000
   7133 H         113.7125  186.1093   35.4220 H      1018      M_A    0.0000
   7134 C         111.1118  184.7170   35.8422 C.3    1019      M_A    0.0000
   7135 C         110.5064  184.4958   34.4592 C.3    1019      M_A    0.0000
   7136 O         110.1693  183.1210   34.2745 O.3    1019      M_A    0.0000
   7137 H         110.6503  184.0584   36.5857 H      1019      M_A    0.0000
   7138 H         110.9210  185.7510   36.1515 H      1019      M_A    0.0000
   7139 H         109.6296  185.1446   34.3206 H      1019      M_A    0.0000
   7140 H         111.2189  184.7682   33.6706 H      1019      M_A    0.0000
   7141 C         110.8552  182.2926   35.1911 C.3    1020      M_A    0.0000
   7142 C         111.2794  183.0517   36.4449 C.3    1020      M_A    0.0000
   7143 O         111.1887  182.2099   37.5942 O.3    1020      M_A    0.0000
   7144 H         110.2205  181.4363   35.4431 H      1020      M_A    0.0000
   7145 H         111.7505  181.9057   34.6910 H      1020      M_A    0.0000
   7146 H         112.2963  183.4510   36.3209 H      1020      M_A    0.0000
   7147 H         110.6277  183.9169   36.6192 H      1020      M_A    0.0000
   7148 C         112.3235  181.3765   37.7158 C.3    1021      M_A    0.0000
   7149 C         113.5867  182.1699   38.0366 C.3    1021      M_A    0.0000
   7150 O         114.7424  181.3405   37.9170 O.3    1021      M_A    0.0000
   7151 H         112.1288  180.6171   38.4806 H      1021      M_A    0.0000
   7152 H         112.4639  180.8570   36.7610 H      1021      M_A    0.0000
   7153 H         113.6576  183.0511   37.3829 H      1021      M_A    0.0000
   7154 H         113.5606  182.5506   39.0652 H      1021      M_A    0.0000
   7155 C         115.1685  181.2377   36.5736 C.3    1022      M_A    0.0000
   7156 C         115.7076  182.5613   36.0393 C.3    1022      M_A    0.0000
   7157 O         117.1243  182.6269   36.2018 O.3    1022      M_A    0.0000
   7158 H         115.9203  180.4449   36.4968 H      1022      M_A    0.0000
   7159 H         114.3059  180.9361   35.9686 H      1022      M_A    0.0000
   7160 H         115.4195  182.6911   34.9862 H      1022      M_A    0.0000
   7161 H         115.2749  183.4099   36.5839 H      1022      M_A    0.0000
   7162 C         117.7581  181.4746   35.6847 C.3    1023      M_A    0.0000
   7163 C         119.2788  181.5991   35.7020 C.3    1023      M_A    0.0000
   7164 O         119.8789  180.3530   36.0554 O.3    1023      M_A    0.0000
   7165 H         117.4267  180.5990   36.2530 H      1023      M_A    0.0000
   7166 H         117.4249  181.3429   34.6489 H      1023      M_A    0.0000
   7167 H         119.6415  181.9554   34.7271 H      1023      M_A    0.0000
   7168 H         119.6035  182.3416   36.4416 H      1023      M_A    0.0000
   7169 C         121.2690  180.4906   36.2693 C.3    1024      M_A    0.0000
   7170 C         121.9272  179.1644   36.6380 C.3    1024      M_A    0.0000
   7171 O         122.3584  178.4762   35.4640 O.3    1024      M_A    0.0000
   7172 H         121.7271  180.9239   35.3737 H      1024      M_A    0.0000
   7173 H         121.4147  181.1997   37.0922 H      1024      M_A    0.0000
   7174 H         122.7636  179.3356   37.3310 H      1024      M_A    0.0000
   7175 H         121.2216  178.5084   37.1628 H      1024      M_A    0.0000
   7176 C         123.4751  177.6517   35.7285 C.3    1025      M_A    0.0000
   7177 C         123.3453  176.9193   37.0607 C.3    1025      M_A    0.0000
   7178 O         122.4615  175.8053   36.9354 O.3    1025      M_A    0.0000
   7179 H         123.6026  176.9463   34.9004 H      1025      M_A    0.0000
   7180 H         124.3654  178.2901   35.7601 H      1025      M_A    0.0000
   7181 H         124.3361  176.6053   37.4193 H      1025      M_A    0.0000
   7182 H         122.9332  177.5802   37.8335 H      1025      M_A    0.0000
   7183 C         122.6458  175.1347   35.7053 C.3    1026      M_A    0.0000
   7184 C         124.1221  174.9289   35.3791 C.3    1026      M_A    0.0000
   7185 O         124.3044  174.7527   33.9743 O.3    1026      M_A    0.0000
   7186 H         122.1107  174.1795   35.7353 H      1026      M_A    0.0000
   7187 H         122.1903  175.7451   34.9171 H      1026      M_A    0.0000
   7188 H         124.7155  175.7741   35.7565 H      1026      M_A    0.0000
   7189 H         124.5126  174.0321   35.8761 H      1026      M_A    0.0000
   7190 C         125.6235  174.3468   33.6708 C.3    1027      M_A    0.0000
   7191 C         126.3643  175.3833   32.8312 C.3    1027      M_A    0.0000
   7192 O         126.9655  176.3698   33.6699 O.3    1027      M_A    0.0000
   7193 H         126.1573  174.1396   34.6044 H      1027      M_A    0.0000
   7194 H         125.5661  173.4089   33.1066 H      1027      M_A    0.0000
   7195 H         127.1125  174.8908   32.1937 H      1027      M_A    0.0000
   7196 H         125.6764  175.9037   32.1532 H      1027      M_A    0.0000
   7197 C         128.1309  175.8746   34.2974 C.3    1028      M_A    0.0000
   7198 C         127.8055  174.9988   35.5037 C.3    1028      M_A    0.0000
   7199 O         128.9431  174.8807   36.3579 O.3    1028      M_A    0.0000
   7200 H         128.7280  175.3267   33.5606 H      1028      M_A    0.0000
   7201 H         128.7240  176.7332   34.6323 H      1028      M_A    0.0000
   7202 H         126.9393  175.4054   36.0452 H      1028      M_A    0.0000
   7203 H         127.5243  173.9860   35.1891 H      1028      M_A    0.0000
   7204 C         128.5828  174.3947   37.6349 C.3    1029      M_A    0.0000
   7205 C         129.6781  174.6334   38.6701 C.3    1029      M_A    0.0000
   7206 O         129.1266  175.1919   39.8625 O.3    1029      M_A    0.0000
   7207 H         127.6404  174.8608   37.9419 H      1029      M_A    0.0000
   7208 H         128.4063  173.3165   37.5477 H      1029      M_A    0.0000
   7209 H         130.2142  173.6963   38.8783 H      1029      M_A    0.0000
   7210 H         130.4278  175.3400   38.2926 H      1029      M_A    0.0000
   7211 C         127.9689  174.4936   40.2734 C.3    1030      M_A    0.0000
   7212 C         128.2358  173.0040   40.4686 C.3    1030      M_A    0.0000
   7213 O         128.9391  172.7775   41.6901 O.3    1030      M_A    0.0000
   7214 H         127.5834  174.9497   41.1914 H      1030      M_A    0.0000
   7215 H         127.2064  174.6182   39.4959 H      1030      M_A    0.0000
   7216 H         127.2910  172.4424   40.4411 H      1030      M_A    0.0000
   7217 H         128.8547  172.6061   39.6547 H      1030      M_A    0.0000
   7218 C         129.6790  173.9166   42.0798 C.3    1031      M_A    0.0000
   7219 C         129.9006  173.9688   43.5885 C.3    1031      M_A    0.0000
   7220 O         130.9016  174.9329   43.9143 O.3    1031      M_A    0.0000
   7221 H         130.6318  173.9257   41.5398 H      1031      M_A    0.0000
   7222 H         129.1158  174.8055   41.7732 H      1031      M_A    0.0000
   7223 H         128.9538  174.1857   44.1038 H      1031      M_A    0.0000
   7224 H         130.2430  172.9983   43.9688 H      1031      M_A    0.0000
   7225 C         130.3578  176.2344   44.0000 C.3    1032      M_A    0.0000
   7226 C         131.0768  177.2186   43.0821 C.3    1032      M_A    0.0000
   7227 O         130.2881  177.4902   41.9236 O.3    1032      M_A    0.0000
   7228 H         129.2876  176.1903   43.7715 H      1032      M_A    0.0000
   7229 H         130.4617  176.5755   45.0364 H      1032      M_A    0.0000
   7230 H         131.3157  178.1423   43.6287 H      1032      M_A    0.0000
   7231 H         132.0343  176.8075   42.7386 H      1032      M_A    0.0000
   7232 C         129.2525  176.5412   41.7688 C.3    1033      M_A    0.0000
   7233 C         127.9476  177.0060   42.4084 C.3    1033      M_A    0.0000
   7234 O         128.0604  177.0076   43.8315 O.3    1033      M_A    0.0000
   7235 H         129.1172  176.3307   40.7026 H      1033      M_A    0.0000
   7236 H         129.5727  175.6111   42.2523 H      1033      M_A    0.0000
   7237 H         127.6715  178.0001   42.0281 H      1033      M_A    0.0000
   7238 H         127.1205  176.3349   42.1452 H      1033      M_A    0.0000
   7239 C         129.0083  177.9576   44.2741 C.3    1034      M_A    0.0000
   7240 C         129.2066  177.9092   45.7862 C.3    1034      M_A    0.0000
   7241 O         129.2728  179.2296   46.3248 O.3    1034      M_A    0.0000
   7242 H         129.9534  177.7923   43.7460 H      1034      M_A    0.0000
   7243 H         128.6430  178.9529   43.9961 H      1034      M_A    0.0000
   7244 H         128.4018  177.3256   46.2561 H      1034      M_A    0.0000
   7245 H         130.1451  177.4022   46.0430 H      1034      M_A    0.0000
   7246 C         128.6947  180.1753   45.4483 C.3    1035      M_A    0.0000
   7247 C         127.5660  179.5727   44.6170 C.3    1035      M_A    0.0000
   7248 O         126.5764  180.5597   44.3264 O.3    1035      M_A    0.0000
   7249 H         128.3421  181.0333   46.0306 H      1035      M_A    0.0000
   7250 H         129.4803  180.5333   44.7731 H      1035      M_A    0.0000
   7251 H         127.9691  179.1274   43.6960 H      1035      M_A    0.0000
   7252 H         127.0692  178.7594   45.1605 H      1035      M_A    0.0000
   7253 C         126.8646  181.2425   43.1232 C.3    1036      M_A    0.0000
   7254 C         126.7195  180.3396   41.9018 C.3    1036      M_A    0.0000
   7255 O         125.4694  179.6511   41.9340 O.3    1036      M_A    0.0000
   7256 H         126.2139  182.1200   43.0457 H      1036      M_A    0.0000
   7257 H         127.8990  181.6007   43.1785 H      1036      M_A    0.0000
   7258 H         126.8281  180.9284   40.9796 H      1036      M_A    0.0000
   7259 H         127.5118  179.5810   41.8780 H      1036      M_A    0.0000
   7260 C         124.4705  180.4221   42.5701 C.3    1037      M_A    0.0000
   7261 C         123.0887  179.7874   42.4449 C.3    1037      M_A    0.0000
   7262 O         122.1180  180.7691   42.0818 O.3    1037      M_A    0.0000
   7263 H         124.7454  180.5668   43.6203 H      1037      M_A    0.0000
   7264 H         124.4519  181.4089   42.0934 H      1037      M_A    0.0000
   7265 H         123.1143  178.9626   41.7183 H      1037      M_A    0.0000
   7266 H         122.7706  179.3480   43.3986 H      1037      M_A    0.0000
   7267 C         122.4036  181.3368   40.8197 C.3    1038      M_A    0.0000
   7268 C         122.0338  180.4014   39.6724 C.3    1038      M_A    0.0000
   7269 O         120.7865  179.7579   39.9335 O.3    1038      M_A    0.0000
   7270 H         121.8809  182.2953   40.7324 H      1038      M_A    0.0000
   7271 H         123.4796  181.5411   40.7778 H      1038      M_A    0.0000
   7272 H         122.0064  180.9566   38.7238 H      1038      M_A    0.0000
   7273 H         122.7891  179.6154   39.5477 H      1038      M_A    0.0000
   7274 C         120.9733  178.4903   40.5295 C.3    1039      M_A    0.0000
   7275 C         119.6959  177.6558   40.5161 C.3    1039      M_A    0.0000
   7276 O         119.9345  176.3854   39.9101 O.3    1039      M_A    0.0000
   7277 H         121.7900  177.9712   40.0168 H      1039      M_A    0.0000
   7278 H         121.2822  178.6489   41.5690 H      1039      M_A    0.0000
   7279 H         119.3046  177.5444   41.5376 H      1039      M_A    0.0000
   7280 H         118.9080  178.1533   39.9369 H      1039      M_A    0.0000
   7281 C         121.3118  176.0699   39.8952 C.3    1040      M_A    0.0000
   7282 C         121.6322  174.8563   40.7628 C.3    1040      M_A    0.0000
   7283 O         121.1647  173.6593   40.1411 O.3    1040      M_A    0.0000
   7284 H         121.6308  175.9108   38.8596 H      1040      M_A    0.0000
   7285 H         121.8603  176.9366   40.2816 H      1040      M_A    0.0000
   7286 H         122.7122  174.8074   40.9629 H      1040      M_A    0.0000
   7287 H         121.1408  174.9321   41.7408 H      1040      M_A    0.0000
   7288 C         121.5755  173.5830   38.7912 C.3    1041      M_A    0.0000
   7289 C         123.0424  173.9642   38.6151 C.3    1041      M_A    0.0000
   7290 O         123.7968  172.8472   38.1448 O.3    1041      M_A    0.0000
   7291 H         121.3817  172.5728   38.4153 H      1041      M_A    0.0000
   7292 H         120.9567  174.2770   38.2109 H      1041      M_A    0.0000
   7293 H         123.1323  174.8227   37.9341 H      1041      M_A    0.0000
   7294 H         123.4832  174.2801   39.5689 H      1041      M_A    0.0000
   7295 C         124.7919  173.2460   37.2241 C.3    1042      M_A    0.0000
   7296 C         126.1859  173.2336   37.8442 C.3    1042      M_A    0.0000
   7297 O         126.9653  172.1674   37.3022 O.3    1042      M_A    0.0000
   7298 H         124.7451  172.5963   36.3436 H      1042      M_A    0.0000
   7299 H         124.5587  174.2655   36.8964 H      1042      M_A    0.0000
   7300 H         126.6775  174.2053   37.6925 H      1042      M_A    0.0000
   7301 H         126.1315  173.0819   38.9295 H      1042      M_A    0.0000
   7302 C         127.4224  172.4709   36.0000 C.3    1043      M_A    0.0000
   7303 C         127.0100  171.4092   34.9847 C.3    1043      M_A    0.0000
   7304 O         127.9230  171.3845   33.8876 O.3    1043      M_A    0.0000
   7305 H         127.0494  173.4595   35.7118 H      1043      M_A    0.0000
   7306 H         128.5166  172.5257   36.0312 H      1043      M_A    0.0000
   7307 H         126.9423  170.4253   35.4708 H      1043      M_A    0.0000
   7308 H         126.0133  171.6211   34.5780 H      1043      M_A    0.0000
   7309 C         129.1990  171.8594   34.2657 C.3    1044      M_A    0.0000
   7310 C         130.0005  170.8078   35.0272 C.3    1044      M_A    0.0000
   7311 O         130.2938  169.6942   34.1835 O.3    1044      M_A    0.0000
   7312 H         129.7353  172.1940   33.3713 H      1044      M_A    0.0000
   7313 H         129.0556  172.7327   34.9123 H      1044      M_A    0.0000
   7314 H         130.9193  171.2530   35.4355 H      1044      M_A    0.0000
   7315 H         129.4337  170.4285   35.8866 H      1044      M_A    0.0000
   7316 C         131.0796  168.7301   34.8541 C.3    1045      M_A    0.0000
   7317 C         132.4414  168.5386   34.1930 C.3    1045      M_A    0.0000
   7318 O         133.3854  168.0232   35.1316 O.3    1045      M_A    0.0000
   7319 H         131.1876  169.0242   35.9036 H      1045      M_A    0.0000
   7320 H         130.5372  167.7780   34.8309 H      1045      M_A    0.0000
   7321 H         132.3487  167.8809   33.3168 H      1045      M_A    0.0000
   7322 H         132.8351  169.4930   33.8215 H      1045      M_A    0.0000
   7323 C         134.3168  169.0109   35.5238 C.3    1046      M_A    0.0000
   7324 C         135.7516  168.6107   35.1930 C.3    1046      M_A    0.0000
   7325 O         135.8636  168.2402   33.8189 O.3    1046      M_A    0.0000
   7326 H         134.0517  169.9611   35.0480 H      1046      M_A    0.0000
   7327 H         134.2276  169.1468   36.6078 H      1046      M_A    0.0000
   7328 H         136.4414  169.4294   35.4439 H      1046      M_A    0.0000
   7329 H         136.0666  167.7477   35.7927 H      1046      M_A    0.0000
   7330 C         136.7529  167.1556   33.6466 C.3    1047      M_A    0.0000
   7331 C         138.0962  167.5998   33.0753 C.3    1047      M_A    0.0000
   7332 O         138.8819  168.2378   34.0820 O.3    1047      M_A    0.0000
   7333 H         136.8814  166.6429   34.6058 H      1047      M_A    0.0000
   7334 H         136.2890  166.4467   32.9513 H      1047      M_A    0.0000
   7335 H         138.6260  166.7406   32.6393 H      1047      M_A    0.0000
   7336 H         137.9571  168.3215   32.2607 H      1047      M_A    0.0000
   7337 C         139.5015  167.2929   34.9307 C.3    1048      M_A    0.0000
   7338 C         140.9922  167.5681   35.1048 C.3    1048      M_A    0.0000
   7339 O         141.3103  167.7466   36.4849 O.3    1048      M_A    0.0000
   7340 H         138.9851  167.2873   35.8965 H      1048      M_A    0.0000
   7341 H         139.3741  166.3015   34.4810 H      1048      M_A    0.0000
   7342 H         141.5828  166.7541   34.6603 H      1048      M_A    0.0000
   7343 H         141.2862  168.4848   34.5786 H      1048      M_A    0.0000
   7344 C         140.7600  166.7161   37.2800 C.3    1049      M_A    0.0000
   7345 C         141.8189  165.7185   37.7403 C.3    1049      M_A    0.0000
   7346 O         141.8504  165.6440   39.1655 O.3    1049      M_A    0.0000
   7347 H         140.2400  167.1628   38.1341 H      1049      M_A    0.0000
   7348 H         140.0132  166.1874   36.6768 H      1049      M_A    0.0000
   7349 H         141.6311  164.7320   37.2924 H      1049      M_A    0.0000
   7350 H         142.8179  166.0238   37.4051 H      1049      M_A    0.0000
   7351 C         142.1343  164.3326   39.6088 C.3    1050      M_A    0.0000
   7352 C         143.3002  163.7090   38.8472 C.3    1050      M_A    0.0000
   7353 O         144.3550  163.3612   39.7440 O.3    1050      M_A    0.0000
   7354 H         142.3322  164.3544   40.6858 H      1050      M_A    0.0000
   7355 H         141.2388  163.7215   39.4486 H      1050      M_A    0.0000
   7356 H         142.9561  162.8346   38.2762 H      1050      M_A    0.0000
   7357 H         143.7116  164.4135   38.1136 H      1050      M_A    0.0000
   7358 C         145.0008  164.5102   40.2533 C.3    1051      M_A    0.0000
   7359 C         146.3456  164.1771   40.8927 C.3    1051      M_A    0.0000
   7360 O         147.3544  164.0372   39.8923 O.3    1051      M_A    0.0000
   7361 H         145.1171  165.2419   39.4467 H      1051      M_A    0.0000
   7362 H         144.3477  164.9551   41.0128 H      1051      M_A    0.0000
   7363 H         146.6169  164.9471   41.6291 H      1051      M_A    0.0000
   7364 H         146.2947  163.2291   41.4427 H      1051      M_A    0.0000
   7365 C         147.1706  162.8592   39.1337 C.3    1052      M_A    0.0000
   7366 C         148.3722  161.9233   39.2264 C.3    1052      M_A    0.0000
   7367 O         147.9786  160.6536   39.7468 O.3    1052      M_A    0.0000
   7368 H         146.2541  162.3598   39.4655 H      1052      M_A    0.0000
   7369 H         147.0287  163.1513   38.0869 H      1052      M_A    0.0000
   7370 H         148.8504  161.8210   38.2417 H      1052      M_A    0.0000
   7371 H         149.1367  162.3314   39.8993 H      1052      M_A    0.0000
   7372 C         148.8152  159.6183   39.2723 C.3    1053      M_A    0.0000
   7373 C         150.2830  160.0339   39.2436 C.3    1053      M_A    0.0000
   7374 O         151.0429  159.2511   40.1643 O.3    1053      M_A    0.0000
   7375 H         148.6686  158.7277   39.8926 H      1053      M_A    0.0000
   7376 H         148.4975  159.3685   38.2535 H      1053      M_A    0.0000
   7377 H         150.6816  159.9490   38.2224 H      1053      M_A    0.0000
   7378 H         150.3989  161.0859   39.5331 H      1053      M_A    0.0000
   7379 C         152.4314  159.4364   39.9778 C.3    1054      M_A    0.0000
   7380 C         153.2584  158.5184   40.8730 C.3    1054      M_A    0.0000
   7381 O         153.9827  157.5723   40.0866 O.3    1054      M_A    0.0000
   7382 H         152.6739  159.2815   38.9211 H      1054      M_A    0.0000
   7383 H         152.6682  160.4781   40.2229 H      1054      M_A    0.0000
   7384 H         153.9334  159.1126   41.5057 H      1054      M_A    0.0000
   7385 H         152.6139  157.9521   41.5569 H      1054      M_A    0.0000
   7386 C         154.7031  156.6681   40.8992 C.3    1055      M_A    0.0000
   7387 C         155.7308  155.8718   40.1004 C.3    1055      M_A    0.0000
   7388 O         156.9622  155.7830   40.8171 O.3    1055      M_A    0.0000
   7389 H         155.1796  157.2222   41.7149 H      1055      M_A    0.0000
   7390 H         153.9850  155.9716   41.3468 H      1055      M_A    0.0000
   7391 H         155.3350  154.8745   39.8605 H      1055      M_A    0.0000
   7392 H         155.9439  156.3579   39.1402 H      1055      M_A    0.0000
   7393 C         157.0790  154.5479   41.4936 C.3    1056      M_A    0.0000
   7394 C         158.3035  153.7585   41.0400 C.3    1056      M_A    0.0000
   7395 O         159.4482  154.1240   41.8105 O.3    1056      M_A    0.0000
   7396 H         157.1053  154.7326   42.5728 H      1056      M_A    0.0000
   7397 H         156.1790  153.9601   41.2797 H      1056      M_A    0.0000
   7398 H         158.1049  152.6790   41.1062 H      1056      M_A    0.0000
   7399 H         158.5360  153.9650   39.9879 H      1056      M_A    0.0000
   7400 C         160.6310  154.0650   41.0395 C.3    1057      M_A    0.0000
   7401 C         161.7255  153.2549   41.7280 C.3    1057      M_A    0.0000
   7402 O         161.9610  152.0342   41.0263 O.3    1057      M_A    0.0000
   7403 H         160.3944  153.6517   40.0532 H      1057      M_A    0.0000
   7404 H         160.9886  155.0905   40.8920 H      1057      M_A    0.0000
   7405 H         162.6447  153.8524   41.8107 H      1057      M_A    0.0000
   7406 H         161.4345  152.9937   42.7531 H      1057      M_A    0.0000
   7407 C         163.1087  151.3701   41.5148 C.3    1058      M_A    0.0000
   7408 C         163.0042  151.0648   43.0061 C.3    1058      M_A    0.0000
   7409 O         163.7925  149.9223   43.3395 O.3    1058      M_A    0.0000
   7410 H         163.2663  150.4550   40.9340 H      1058      M_A    0.0000
   7411 H         163.9730  152.0226   41.3462 H      1058      M_A    0.0000
   7412 H         163.3042  151.9433   43.5953 H      1058      M_A    0.0000
   7413 H         161.9678  150.8429   43.2897 H      1058      M_A    0.0000
   7414 C         165.0356  149.9377   42.6677 C.3    1059      M_A    0.0000
   7415 C         166.1064  149.1566   43.4236 C.3    1059      M_A    0.0000
   7416 O         167.3956  149.7261   43.1961 O.3    1059      M_A    0.0000
   7417 H         164.8996  149.5434   41.6551 H      1059      M_A    0.0000
   7418 H         165.3564  150.9818   42.5765 H      1059      M_A    0.0000
   7419 H         165.8669  149.1250   44.4963 H      1059      M_A    0.0000
   7420 H         166.1437  148.1136   43.0854 H      1059      M_A    0.0000
   7421 C         167.6221  150.8434   44.0312 C.3    1060      M_A    0.0000
   7422 C         167.7350  150.4484   45.5006 C.3    1060      M_A    0.0000
   7423 O         168.9206  150.9966   46.0766 O.3    1060      M_A    0.0000
   7424 H         168.5228  151.3661   43.6920 H      1060      M_A    0.0000
   7425 H         166.7760  151.5298   43.9125 H      1060      M_A    0.0000
   7426 H         166.8383  150.7695   46.0499 H      1060      M_A    0.0000
   7427 H         167.7900  149.3581   45.6110 H      1060      M_A    0.0000
   7428 C         169.6755  151.7142   45.1216 C.3    1061      M_A    0.0000
   7429 C         168.8497  152.0750   43.8904 C.3    1061      M_A    0.0000
   7430 O         169.1750  153.3889   43.4370 O.3    1061      M_A    0.0000
   7431 H         170.0917  152.6099   45.5949 H      1061      M_A    0.0000
   7432 H         170.5157  151.0821   44.8122 H      1061      M_A    0.0000
   7433 H         169.0041  151.3288   43.0978 H      1061      M_A    0.0000
   7434 H         167.7769  152.0630   44.1200 H      1061      M_A    0.0000
   7435 C         170.4724  153.7710   43.8467 C.3    1062      M_A    0.0000
   7436 C         171.5585  152.9711   43.1334 C.3    1062      M_A    0.0000
   7437 O         171.6149  153.3252   41.7516 O.3    1062      M_A    0.0000
   7438 H         170.5982  154.8459   43.6785 H      1062      M_A    0.0000
   7439 H         170.5514  153.5927   44.9252 H      1062      M_A    0.0000
   7440 H         172.5293  153.1263   43.6258 H      1062      M_A    0.0000
   7441 H         171.3536  151.8947   43.1886 H      1062      M_A    0.0000
   7442 C         170.3243  153.5523   41.2228 C.3    1063      M_A    0.0000
   7443 C         170.0958  152.7921   39.9198 C.3    1063      M_A    0.0000
   7444 O         168.8801  152.0464   39.9820 O.3    1063      M_A    0.0000
   7445 H         169.5767  153.2801   41.9755 H      1063      M_A    0.0000
   7446 H         170.2237  154.6263   41.0290 H      1063      M_A    0.0000
   7447 H         170.0944  153.4888   39.0692 H      1063      M_A    0.0000
   7448 H         170.9090  152.0796   39.7331 H      1063      M_A    0.0000
   7449 C         169.0750  150.7051   39.5821 C.3    1064      M_A    0.0000
   7450 C         168.0601  149.7621   40.2214 C.3    1064      M_A    0.0000
   7451 O         166.9315  150.4925   40.7016 O.3    1064      M_A    0.0000
   7452 H         169.0335  150.6484   38.4891 H      1064      M_A    0.0000
   7453 H         170.0825  150.4042   39.8916 H      1064      M_A    0.0000
   7454 H         167.7581  148.9862   39.5033 H      1064      M_A    0.0000
   7455 H         168.4989  149.2352   41.0779 H      1064      M_A    0.0000
   7456 C         166.4711  151.4226   39.7424 C.3    1065      M_A    0.0000
   7457 C         165.5422  150.7783   38.7177 C.3    1065      M_A    0.0000
   7458 O         165.2882  151.6768   37.6378 O.3    1065      M_A    0.0000
   7459 H         165.9760  152.2524   40.2581 H      1065      M_A    0.0000
   7460 H         167.3452  151.8303   39.2217 H      1065      M_A    0.0000
   7461 H         165.9717  149.8322   38.3580 H      1065      M_A    0.0000
   7462 H         164.5747  150.5255   39.1691 H      1065      M_A    0.0000
   7463 C         166.3730  151.7179   36.7331 C.3    1066      M_A    0.0000
   7464 C         166.5537  150.3959   35.9930 C.3    1066      M_A    0.0000
   7465 O         167.8231  150.3567   35.3412 O.3    1066      M_A    0.0000
   7466 H         166.2226  152.5460   36.0323 H      1066      M_A    0.0000
   7467 H         167.2824  151.9302   37.3068 H      1066      M_A    0.0000
   7468 H         166.4349  149.5524   36.6882 H      1066      M_A    0.0000
   7469 H         165.7841  150.2697   35.2212 H      1066      M_A    0.0000
   7470 C         168.8538  149.9949   36.2376 C.3    1067      M_A    0.0000
   7471 C         168.4637  148.8065   37.1116 C.3    1067      M_A    0.0000
   7472 O         168.5396  147.5911   36.3668 O.3    1067      M_A    0.0000
   7473 H         169.7652  149.7842   35.6680 H      1067      M_A    0.0000
   7474 H         169.0578  150.8574   36.8824 H      1067      M_A    0.0000
   7475 H         169.1017  148.7678   38.0063 H      1067      M_A    0.0000
   7476 H         167.4325  148.9066   37.4727 H      1067      M_A    0.0000
   7477 C         169.8672  147.3068   35.9749 C.3    1068      M_A    0.0000
   7478 C         170.4767  146.1719   36.7927 C.3    1068      M_A    0.0000
   7479 O         171.8733  146.0540   36.5220 O.3    1068      M_A    0.0000
   7480 H         169.8820  147.0749   34.9046 H      1068      M_A    0.0000
   7481 H         170.4646  148.2132   36.1259 H      1068      M_A    0.0000
   7482 H         170.2892  146.3331   37.8641 H      1068      M_A    0.0000
   7483 H         170.0107  145.2114   36.5396 H      1068      M_A    0.0000
   7484 C         172.5950  147.1536   37.0386 C.3    1069      M_A    0.0000
   7485 C         172.5176  147.2271   38.5607 C.3    1069      M_A    0.0000
   7486 O         173.5336  146.4180   39.1531 O.3    1069      M_A    0.0000
   7487 H         173.6341  147.0908   36.6982 H      1069      M_A    0.0000
   7488 H         172.1628  148.0684   36.6171 H      1069      M_A    0.0000
   7489 H         172.5932  148.2719   38.8946 H      1069      M_A    0.0000
   7490 H         171.5503  146.8571   38.9229 H      1069      M_A    0.0000
   7491 C         174.7151  147.1581   39.3839 C.3    1070      M_A    0.0000
   7492 C         174.5297  148.2106   40.4729 C.3    1070      M_A    0.0000
   7493 O         174.6881  147.6265   41.7658 O.3    1070      M_A    0.0000
   7494 H         175.5262  146.4668   39.6364 H      1070      M_A    0.0000
   7495 H         174.9865  147.6600   38.4482 H      1070      M_A    0.0000
   7496 H         175.2331  149.0420   40.3209 H      1070      M_A    0.0000
   7497 H         173.5237  148.6465   40.4304 H      1070      M_A    0.0000
   7498 C         175.0103  146.2534   41.6770 C.3    1071      M_A    0.0000
   7499 C         175.0314  145.5791   43.0456 C.3    1071      M_A    0.0000
   7500 O         174.6590  144.2056   42.9326 O.3    1071      M_A    0.0000
   7501 H         174.2984  145.7621   41.0052 H      1071      M_A    0.0000
   7502 H         176.0051  146.1693   41.2249 H      1071      M_A    0.0000
   7503 H         176.0236  145.6877   43.5069 H      1071      M_A    0.0000
   7504 H         174.3195  146.0572   43.7299 H      1071      M_A    0.0000
   7505 C         175.3886  143.3962   43.8323 C.3    1072      M_A    0.0000
   7506 C         175.8892  142.1137   43.1743 C.3    1072      M_A    0.0000
   7507 O         176.9278  141.5229   43.9555 O.3    1072      M_A    0.0000
   7508 H         176.2190  143.9791   44.2446 H      1072      M_A    0.0000
   7509 H         174.7241  143.1324   44.6631 H      1072      M_A    0.0000
   7510 H         175.0547  141.4137   43.0237 H      1072      M_A    0.0000
   7511 H         176.3028  142.3187   42.1790 H      1072      M_A    0.0000
   7512 C         177.5317  140.4395   43.2784 C.3    1073      M_A    0.0000
   7513 C         179.0391  140.3872   43.5084 C.3    1073      M_A    0.0000
   7514 O         179.3826  139.2655   44.3219 O.3    1073      M_A    0.0000
   7515 H         177.0509  139.5077   43.5948 H      1073      M_A    0.0000
   7516 H         177.3407  140.5636   42.2063 H      1073      M_A    0.0000
   7517 H         179.5692  140.3600   42.5455 H      1073      M_A    0.0000
   7518 H         179.3886  141.2885   44.0272 H      1073      M_A    0.0000
   7519 C         180.7438  139.2984   44.7001 C.3    1074      M_A    0.0000
   7520 C         181.2581  137.9227   45.1138 C.3    1074      M_A    0.0000
   7521 O         182.6077  137.7431   44.6845 O.3    1074      M_A    0.0000
   7522 H         181.3343  139.7093   43.8744 H      1074      M_A    0.0000
   7523 H         180.8409  139.9835   45.5501 H      1074      M_A    0.0000
   7524 H         181.1640  137.7937   46.2016 H      1074      M_A    0.0000
   7525 H         180.6590  137.1256   44.6560 H      1074      M_A    0.0000
   7526 C         182.9858  136.3820   44.7226 C.3    1075      M_A    0.0000
   7527 C         184.4967  136.2025   44.6089 C.3    1075      M_A    0.0000
   7528 O         185.0029  135.4924   45.7392 O.3    1075      M_A    0.0000
   7529 H         182.6022  135.9303   45.6437 H      1075      M_A    0.0000
   7530 H         182.5040  135.8747   43.8791 H      1075      M_A    0.0000
   7531 H         184.7484  135.6900   43.6693 H      1075      M_A    0.0000
   7532 H         185.0061  137.1737   44.5761 H      1075      M_A    0.0000
   7533 C         186.3810  135.2129   45.5997 C.3    1076      M_A    0.0000
   7534 C         186.8788  134.2355   46.6604 C.3    1076      M_A    0.0000
   7535 O         187.6611  133.2025   46.0613 O.3    1076      M_A    0.0000
   7536 H         186.5677  134.8301   44.5907 H      1076      M_A    0.0000
   7537 H         186.9284  136.1568   45.7027 H      1076      M_A    0.0000
   7538 H         187.4486  134.7716   47.4329 H      1076      M_A    0.0000
   7539 H         186.0384  133.7540   47.1759 H      1076      M_A    0.0000
   7540 C         188.5395  133.7204   45.0830 C.3    1077      M_A    0.0000
   7541 C         190.0006  133.6160   45.5102 C.3    1077      M_A    0.0000
   7542 O         190.5951  132.4335   44.9755 O.3    1077      M_A    0.0000
   7543 H         188.3665  133.1991   44.1355 H      1077      M_A    0.0000
   7544 H         188.2893  134.7766   44.9306 H      1077      M_A    0.0000
   7545 H         190.5517  134.5157   45.2008 H      1077      M_A    0.0000
   7546 H         190.0872  133.5621   46.6027 H      1077      M_A    0.0000
   7547 C         191.7994  132.1133   45.6418 C.3    1078      M_A    0.0000
   7548 C         191.7167  130.7719   46.3644 C.3    1078      M_A    0.0000
   7549 O         192.8747  129.9834   46.0903 O.3    1078      M_A    0.0000
   7550 H         192.6215  132.1224   44.9182 H      1078      M_A    0.0000
   7551 H         191.9971  132.9009   46.3778 H      1078      M_A    0.0000
   7552 H         191.5872  130.9303   47.4447 H      1078      M_A    0.0000
   7553 H         190.8426  130.1992   46.0301 H      1078      M_A    0.0000
   7554 C         194.0267  130.7890   45.9462 C.3    1079      M_A    0.0000
   7555 C         195.0945  130.4547   46.9837 C.3    1079      M_A    0.0000
   7556 O         196.0100  129.4893   46.4664 O.3    1079      M_A    0.0000
   7557 H         194.4158  130.6775   44.9285 H      1079      M_A    0.0000
   7558 H         193.7245  131.8349   46.0728 H      1079      M_A    0.0000
   7559 H         195.6151  131.3697   47.3009 H      1079      M_A    0.0000
   7560 H         194.6431  130.0278   47.8880 H      1079      M_A    0.0000
   7561 C         196.5637  128.6972   47.4973 C.3    1080      M_A    0.0000
   7562 C         197.4429  127.5762   46.9509 C.3    1080      M_A    0.0000
   7563 O         198.6013  128.1143   46.3134 O.3    1080      M_A    0.0000
   7564 H         197.1254  129.3424   48.1812 H      1080      M_A    0.0000
   7565 H         195.7362  128.2547   48.0637 H      1080      M_A    0.0000
   7566 H         197.7169  126.8812   47.7577 H      1080      M_A    0.0000
   7567 H         196.9024  126.9825   46.2031 H      1080      M_A    0.0000
   7568 C         199.7880  127.6847   46.9492 C.3    1081      M_A    0.0000
   7569 C         199.9523  126.1688   46.8945 C.3    1081      M_A    0.0000
   7570 O         200.9740  125.8093   45.9644 O.3    1081      M_A    0.0000
   7571 H         200.6432  128.1919   46.4898 H      1081      M_A    0.0000
   7572 H         199.7409  127.9986   47.9982 H      1081      M_A    0.0000
   7573 H         200.1680  125.7740   47.8977 H      1081      M_A    0.0000
   7574 H         199.0240  125.6849   46.5660 H      1081      M_A    0.0000
   7575 C         201.3971  124.4741   46.1514 C.3    1082      M_A    0.0000
   7576 C         202.9034  124.3177   45.9647 C.3    1082      M_A    0.0000
   7577 O         203.5119  123.8558   47.1706 O.3    1082      M_A    0.0000
   7578 H         201.0848  124.1361   47.1452 H      1082      M_A    0.0000
   7579 H         200.8816  123.8505   45.4121 H      1082      M_A    0.0000
   7580 H         203.1133  123.6390   45.1254 H      1082      M_A    0.0000
   7581 H         203.3690  125.2776   45.7086 H      1082      M_A    0.0000
   7582 C         204.6307  123.0348   46.9038 C.3    1083      M_A    0.0000
   7583 C         205.6395  123.0493   48.0485 C.3    1083      M_A    0.0000
   7584 O         206.1488  121.7366   48.2834 O.3    1083      M_A    0.0000
   7585 H         204.2851  122.0168   46.6944 H      1083      M_A    0.0000
   7586 H         205.1174  123.4126   45.9974 H      1083      M_A    0.0000
   7587 H         206.4500  123.7597   47.8310 H      1083      M_A    0.0000
   7588 H         205.1715  123.3917   48.9799 H      1083      M_A    0.0000
   7589 C         207.3563  121.7738   49.0166 C.3    1084      M_A    0.0000
   7590 C         208.0363  120.4091   49.0726 C.3    1084      M_A    0.0000
   7591 O         209.4358  120.5366   48.8213 O.3    1084      M_A    0.0000
   7592 H         208.0182  122.5276   48.5770 H      1084      M_A    0.0000
   7593 H         207.1207  122.0947   50.0378 H      1084      M_A    0.0000
   7594 H         207.8465  119.9300   50.0438 H      1084      M_A    0.0000
   7595 H         207.6259  119.7344   48.3108 H      1084      M_A    0.0000
   7596 C         210.0016  119.3084   48.4109 C.3    1085      M_A    0.0000
   7597 C         211.4420  119.1516   48.8893 C.3    1085      M_A    0.0000
   7598 O         211.6764  117.8185   49.3429 O.3    1085      M_A    0.0000
   7599 H         209.3735  118.4872   48.7722 H      1085      M_A    0.0000
   7600 H         209.9867  119.2799   47.3154 H      1085      M_A    0.0000
   7601 H         212.1407  119.4297   48.0871 H      1085      M_A    0.0000
   7602 H         211.6525  119.8260   49.7287 H      1085      M_A    0.0000
   7603 C         213.0584  117.5428   49.4463 C.3    1086      M_A    0.0000
   7604 C         213.3327  116.2778   50.2541 C.3    1086      M_A    0.0000
   7605 O         214.4929  115.6094   49.7590 O.3    1086      M_A    0.0000
   7606 H         213.4844  117.4693   48.4400 H      1086      M_A    0.0000
   7607 H         213.5352  118.3934   49.9468 H      1086      M_A    0.0000
   7608 H         213.4375  116.5238   51.3206 H      1086      M_A    0.0000
   7609 H         212.4928  115.5755   50.1810 H      1086      M_A    0.0000
   7610 C         214.6613  114.3456   50.3683 C.3    1087      M_A    0.0000
   7611 C         215.9980  113.7063   50.0042 C.3    1087      M_A    0.0000
   7612 O         216.9527  113.9154   51.0447 O.3    1087      M_A    0.0000
   7613 H         214.5580  114.4553   51.4531 H      1087      M_A    0.0000
   7614 H         213.8507  113.6940   50.0224 H      1087      M_A    0.0000
   7615 H         215.8621  112.6353   49.7955 H      1087      M_A    0.0000
   7616 H         216.4084  114.1490   49.0880 H      1087      M_A    0.0000
   7617 C         218.2440  113.4949   50.6540 C.3    1088      M_A    0.0000
   7618 C         218.8450  114.4037   49.5858 C.3    1088      M_A    0.0000
   7619 O         220.2691  114.4172   49.6836 O.3    1088      M_A    0.0000
   7620 H         218.8871  113.4463   51.5392 H      1088      M_A    0.0000
   7621 H         218.1598  112.4798   50.2494 H      1088      M_A    0.0000
   7622 H         218.5159  114.0840   48.5866 H      1088      M_A    0.0000
   7623 H         218.4975  115.4371   49.7087 H      1088      M_A    0.0000
   7624 C         220.7611  113.2131   50.2359 C.3    1089      M_A    0.0000
   7625 C         222.0795  112.7854   49.5980 C.3    1089      M_A    0.0000
   7626 O         222.9147  112.1405   50.5595 O.3    1089      M_A    0.0000
   7627 H         220.8669  113.3338   51.3193 H      1089      M_A    0.0000
   7628 H         220.0127  112.4317   50.0610 H      1089      M_A    0.0000
   7629 H         221.8889  112.1340   48.7330 H      1089      M_A    0.0000
   7630 H         222.6300  113.6536   49.2146 H      1089      M_A    0.0000
   7631 C         223.2899  110.8464   50.1335 C.3    1090      M_A    0.0000
   7632 C         224.6421  110.4248   50.7008 C.3    1090      M_A    0.0000
   7633 O         224.6056  109.0606   51.1200 O.3    1090      M_A    0.0000
   7634 H         222.5047  110.1362   50.4139 H      1090      M_A    0.0000
   7635 H         223.3521  110.8567   49.0393 H      1090      M_A    0.0000
   7636 H         225.4348  110.5937   49.9578 H      1090      M_A    0.0000
   7637 H         224.9066  111.0306   51.5765 H      1090      M_A    0.0000
   7638 C         225.6869  108.7536   51.9764 C.3    1091      M_A    0.0000
   7639 C         226.6349  107.7294   51.3597 C.3    1091      M_A    0.0000
   7640 O         227.9734  107.9571   51.8008 O.3    1091      M_A    0.0000
   7641 H         226.2154  109.6787   52.2305 H      1091      M_A    0.0000
   7642 H         225.2751  108.3416   52.9048 H      1091      M_A    0.0000
   7643 H         226.3020  106.7099   51.6020 H      1091      M_A    0.0000
   7644 H         226.6330  107.8020   50.2649 H      1091      M_A    0.0000
   7645 C         228.8370  106.9161   51.3915 C.3    1092      M_A    0.0000
   7646 C         230.1417  106.9082   52.1825 C.3    1092      M_A    0.0000
   7647 O         230.6096  105.5716   52.3627 O.3    1092      M_A    0.0000
   7648 H         228.3124  105.9592   51.4846 H      1092      M_A    0.0000
   7649 H         229.0665  107.0663   50.3303 H      1092      M_A    0.0000
   7650 H         230.8949  107.5309   51.6785 H      1092      M_A    0.0000
   7651 H         229.9991  107.3435   53.1794 H      1092      M_A    0.0000
   7652 C         231.3000  105.1068   51.2207 C.3    1093      M_A    0.0000
   7653 C         232.7989  104.9709   51.4718 C.3    1093      M_A    0.0000
   7654 O         233.1281  103.6261   51.8195 O.3    1093      M_A    0.0000
   7655 H         230.8643  104.1535   50.9031 H      1093      M_A    0.0000
   7656 H         231.1400  105.8299   50.4128 H      1093      M_A    0.0000
   7657 H         233.3633  105.3054   50.5896 H      1093      M_A    0.0000
   7658 H         233.1175  105.6124   52.3029 H      1093      M_A    0.0000
   7659 C         234.3924  103.5485   52.4461 C.3    1094      M_A    0.0000
   7660 C         234.7579  102.1167   52.8262 C.3    1094      M_A    0.0000
   7661 O         236.1441  101.8737   52.5867 O.3    1094      M_A    0.0000
   7662 H         235.1468  103.9866   51.7840 H      1094      M_A    0.0000
   7663 H         234.3555  104.1585   53.3560 H      1094      M_A    0.0000
   7664 H         234.4936  101.9234   53.8758 H      1094      M_A    0.0000
   7665 H         234.1895  101.3943   52.2272 H      1094      M_A    0.0000
   7666 C         236.9424  102.9522   53.0299 C.3    1095      M_A    0.0000
   7667 C         238.0207  102.5029   54.0115 C.3    1095      M_A    0.0000
   7668 O         239.1391  101.9579   53.3115 O.3    1095      M_A    0.0000
   7669 H         237.3827  103.4518   52.1605 H      1095      M_A    0.0000
   7670 H         236.2863  103.6739   53.5299 H      1095      M_A    0.0000
   7671 H         238.3220  103.3423   54.6547 H      1095      M_A    0.0000
   7672 H         237.6405  101.7221   54.6820 H      1095      M_A    0.0000
   7673 C         239.6359  100.8003   53.9519 C.3    1096      M_A    0.0000
   7674 C         239.9985   99.7036   52.9550 C.3    1096      M_A    0.0000
   7675 O         241.2578   99.1200   53.2889 O.3    1096      M_A    0.0000
   7676 H         240.4986  101.0753   54.5681 H      1096      M_A    0.0000
   7677 H         238.8551  100.4252   54.6233 H      1096      M_A    0.0000
   7678 H         239.2032   98.9451   52.9193 H      1096      M_A    0.0000
   7679 H         240.0834  100.1089   51.9390 H      1096      M_A    0.0000
   7680 C         242.3237  100.0147   53.0436 C.3    1097      M_A    0.0000
   7681 C         243.5737   99.6505   53.8393 C.3    1097      M_A    0.0000
   7682 O         244.2901   98.5988   53.1923 O.3    1097      M_A    0.0000
   7683 H         242.5319  100.0364   51.9686 H      1097      M_A    0.0000
   7684 H         241.9959  101.0183   53.3381 H      1097      M_A    0.0000
   7685 H         244.2068  100.5385   53.9791 H      1097      M_A    0.0000
   7686 H         243.3104   99.2986   54.8446 H      1097      M_A    0.0000
   7687 C         245.1082   97.8935   54.1034 C.3    1098      M_A    0.0000
   7688 C         244.8117   96.3968   54.1016 C.3    1098      M_A    0.0000
   7689 O         246.0248   95.6463   54.0475 O.3    1098      M_A    0.0000
   7690 H         246.1592   98.0886   53.8649 H      1098      M_A    0.0000
   7691 H         244.9166   98.2917   55.1064 H      1098      M_A    0.0000
   7692 H         244.2137   96.1273   54.9841 H      1098      M_A    0.0000
   7693 H         244.2126   96.1164   53.2262 H      1098      M_A    0.0000
   7694 C         246.8839   95.9738   55.1207 C.3    1099      M_A    0.0000
   7695 C         247.5943   94.7460   55.6827 C.3    1099      M_A    0.0000
   7696 O         248.8799   94.5926   55.0812 O.3    1099      M_A    0.0000
   7697 H         247.6037   96.7279   54.7849 H      1099      M_A    0.0000
   7698 H         246.2761   96.4254   55.9131 H      1099      M_A    0.0000
   7699 H         247.6711   94.8197   56.7770 H      1099      M_A    0.0000
   7700 H         247.0233   93.8325   55.4748 H      1099      M_A    0.0000
   7701 C         249.2663   93.2344   55.0261 C.3    1100      M_A    0.0000
   7702 C         250.7496   93.0721   54.7073 C.3    1100      M_A    0.0000
   7703 O         251.3302   92.0594   55.5291 O.3    1100      M_A    0.0000
   7704 H         249.0107   92.7513   55.9752 H      1100      M_A    0.0000
   7705 H         248.6791   92.7487   54.2383 H      1100      M_A    0.0000
   7706 H         250.8860   92.8474   53.6396 H      1100      M_A    0.0000
   7707 H         251.2965   94.0038   54.8984 H      1100      M_A    0.0000
   7708 C         252.7265   92.2348   55.6572 C.3    1101      M_A    0.0000
   7709 C         253.4252   90.9596   56.1199 C.3    1101      M_A    0.0000
   7710 O         254.4863   90.6185   55.2278 O.3    1101      M_A    0.0000
   7711 H         253.1321   92.5832   54.7014 H      1101      M_A    0.0000
   7712 H         252.9005   93.0233   56.3983 H      1101      M_A    0.0000
   7713 H         253.7916   91.0799   57.1495 H      1101      M_A    0.0000
   7714 H         252.7267   90.1138   56.1382 H      1101      M_A    0.0000
   7715 C         255.4503   89.8010   55.8595 C.3    1102      M_A    0.0000
   7716 C         255.7426   88.5350   55.0594 C.3    1102      M_A    0.0000
   7717 O         257.1150   88.1650   55.1918 O.3    1102      M_A    0.0000
   7718 H         256.3624   90.3849   56.0226 H      1102      M_A    0.0000
   7719 H         255.0587   89.5164   56.8428 H      1102      M_A    0.0000
   7720 H         255.0764   87.7212   55.3799 H      1102      M_A    0.0000
   7721 H         255.5461   88.6915   53.9914 H      1102      M_A    0.0000
   7722 C         257.3466   87.4583   56.3933 C.3    1103      M_A    0.0000
   7723 C         258.4742   86.4400   56.2522 C.3    1103      M_A    0.0000
   7724 O         259.5844   86.8060   57.0715 O.3    1103      M_A    0.0000
   7725 H         257.5587   88.1746   57.1941 H      1103      M_A    0.0000
   7726 H         256.4230   86.9303   56.6570 H      1103      M_A    0.0000
   7727 H         258.1091   85.4329   56.5000 H      1103      M_A    0.0000
   7728 H         258.8322   86.3917   55.2162 H      1103      M_A    0.0000
   7729 C         260.2415   85.6677   57.5907 C.3    1104      M_A    0.0000
   7730 C         260.4655   84.5985   56.5255 C.3    1104      M_A    0.0000
   7731 O         261.8607   84.4187   56.2825 O.3    1104      M_A    0.0000
   7732 H         261.1887   85.9780   58.0447 H      1104      M_A    0.0000
   7733 H         259.6139   85.2498   58.3861 H      1104      M_A    0.0000
   7734 H         259.9876   83.6556   56.8279 H      1104      M_A    0.0000
   7735 H         260.0011   84.8881   55.5746 H      1104      M_A    0.0000
   7736 C         262.4501   83.5758   57.2515 C.3    1105      M_A    0.0000
   7737 C         263.7912   83.0162   56.7863 C.3    1105      M_A    0.0000
   7738 O         264.7566   83.0931   57.8351 O.3    1105      M_A    0.0000
   7739 H         262.5573   84.1304   58.1898 H      1105      M_A    0.0000
   7740 H         261.7628   82.7422   57.4359 H      1105      M_A    0.0000
   7741 H         263.6685   81.9830   56.4307 H      1105      M_A    0.0000
   7742 H         264.1826   83.5898   55.9369 H      1105      M_A    0.0000
   7743 C         265.6918   82.0367   57.7557 C.3    1106      M_A    0.0000
   7744 C         267.0258   82.4935   57.1726 C.3    1106      M_A    0.0000
   7745 O         268.1075   81.7996   57.7941 O.3    1106      M_A    0.0000
   7746 H         265.8242   81.6011   58.7518 H      1106      M_A    0.0000
   7747 H         265.2690   81.2603   57.1079 H      1106      M_A    0.0000
   7748 H         267.0324   82.3502   56.0825 H      1106      M_A    0.0000
   7749 H         267.1823   83.5660   57.3433 H      1106      M_A    0.0000
   7750 C         267.8796   80.4052   57.8219 C.3    1107      M_A    0.0000
   7751 C         269.0820   79.6166   57.3116 C.3    1107      M_A    0.0000
   7752 O         269.8433   79.1021   58.4041 O.3    1107      M_A    0.0000
   7753 H         267.6150   80.1067   58.8419 H      1107      M_A    0.0000
   7754 H         267.0172   80.1919   57.1799 H      1107      M_A    0.0000
   7755 H         268.7504   78.8110   56.6407 H      1107      M_A    0.0000
   7756 H         269.7482   80.2561   56.7193 H      1107      M_A    0.0000
   7757 C         270.5198   80.1332   59.0940 C.3    1108      M_A    0.0000
   7758 C         271.8600   79.6659   59.6541 C.3    1108      M_A    0.0000
   7759 O         272.8633   79.6926   58.6390 O.3    1108      M_A    0.0000
   7760 H         270.6488   80.9881   58.4218 H      1108      M_A    0.0000
   7761 H         269.8822   80.4577   59.9244 H      1108      M_A    0.0000
   7762 H         272.1472   80.2844   60.5166 H      1108      M_A    0.0000
   7763 H         271.7933   78.6348   60.0231 H      1108      M_A    0.0000
   7764 C         273.1851   78.3900   58.1955 C.3    1109      M_A    0.0000
   7765 C         274.6038   77.9852   58.5845 C.3    1109      M_A    0.0000
   7766 O         274.6673   76.5858   58.8596 O.3    1109      M_A    0.0000
   7767 H         272.4490   77.6844   58.5952 H      1109      M_A    0.0000
   7768 H         273.0991   78.3753   57.1029 H      1109      M_A    0.0000
   7769 H         275.3105   78.2692   57.7914 H      1109      M_A    0.0000
   7770 H         274.9284   78.5130   59.4899 H      1109      M_A    0.0000
   7771 C         275.9804   76.0873   58.7046 C.3    1110      M_A    0.0000
   7772 C         276.3518   75.0962   59.8037 C.3    1110      M_A    0.0000
   7773 O         277.2677   74.1196   59.3084 O.3    1110      M_A    0.0000
   7774 H         276.0750   75.6318   57.7131 H      1110      M_A    0.0000
   7775 H         276.6708   76.9376   58.7460 H      1110      M_A    0.0000
   7776 H         276.7663   75.6294   60.6713 H      1110      M_A    0.0000
   7777 H         275.4651   74.5611   60.1658 H      1110      M_A    0.0000
   7778 C         278.5446   74.6788   59.0764 C.3    1111      M_A    0.0000
   7779 C         279.6485   73.9057   59.7919 C.3    1111      M_A    0.0000
   7780 O         280.4794   73.2305   58.8477 O.3    1111      M_A    0.0000
   7781 H         278.7262   74.7194   57.9971 H      1111      M_A    0.0000
   7782 H         278.5341   75.7092   59.4497 H      1111      M_A    0.0000
   7783 H         280.2354   74.5836   60.4282 H      1111      M_A    0.0000
   7784 H         279.2255   73.1452   60.4600 H      1111      M_A    0.0000
   7785 C         281.2271   72.2000   59.4607 C.3    1112      M_A    0.0000
   7786 C         282.5752   71.9852   58.7790 C.3    1112      M_A    0.0000
   7787 O         283.5463   71.5318   59.7220 O.3    1112      M_A    0.0000
   7788 H         281.3542   72.4341   60.5230 H      1112      M_A    0.0000
   7789 H         280.6440   71.2744   59.3927 H      1112      M_A    0.0000
   7790 H         282.4694   71.2790   57.9429 H      1112      M_A    0.0000
   7791 H         282.9497   72.9212   58.3461 H      1112      M_A    0.0000
   7792 C         283.3886   70.1565   60.0060 C.3    1113      M_A    0.0000
   7793 C         284.6048   69.3393   59.5805 C.3    1113      M_A    0.0000
   7794 O         285.4351   69.0544   60.7063 O.3    1113      M_A    0.0000
   7795 H         283.1840   70.0335   61.0749 H      1113      M_A    0.0000
   7796 H         282.5105   69.7976   59.4570 H      1113      M_A    0.0000
   7797 H         284.2843   68.4163   59.0763 H      1113      M_A    0.0000
   7798 H         285.2143   69.8914   58.8543 H      1113      M_A    0.0000
   7799 C         286.7369   68.6770   60.3065 C.3    1114      M_A    0.0000
   7800 C         287.5392   69.8602   59.7729 C.3    1114      M_A    0.0000
   7801 O         288.9180   69.7262   60.1177 O.3    1114      M_A    0.0000
   7802 H         287.2469   68.2026   61.1517 H      1114      M_A    0.0000
   7803 H         286.6416   67.9267   59.5133 H      1114      M_A    0.0000
   7804 H         287.4059   69.9494   58.6851 H      1114      M_A    0.0000
   7805 H         287.1826   70.8033   60.2054 H      1114      M_A    0.0000
   7806 C         289.1254   69.9141   61.5028 C.3    1115      M_A    0.0000
   7807 C         287.8615   69.6451   62.3143 C.3    1115      M_A    0.0000
   7808 O         288.0356   70.0680   63.6666 O.3    1115      M_A    0.0000
   7809 H         289.9499   69.2723   61.8310 H      1115      M_A    0.0000
   7810 H         289.4326   70.9544   61.6594 H      1115      M_A    0.0000
   7811 H         286.9984   70.1415   61.8480 H      1115      M_A    0.0000
   7812 H         287.6275   68.5733   62.3328 H      1115      M_A    0.0000
   7813 C         288.6150   71.3551   63.7355 C.3    1116      M_A    0.0000
   7814 C         287.9298   72.3441   62.7972 C.3    1116      M_A    0.0000
   7815 O         288.7129   73.5300   62.6617 O.3    1116      M_A    0.0000
   7816 H         288.5827   71.7064   64.7723 H      1116      M_A    0.0000
   7817 H         289.6690   71.2659   63.4484 H      1116      M_A    0.0000
   7818 H         287.7435   71.8743   61.8208 H      1116      M_A    0.0000
   7819 H         286.9488   72.6413   63.1884 H      1116      M_A    0.0000
   7820 C         288.6112   74.0710   61.3602 C.3    1117      M_A    0.0000
   7821 C         287.1680   74.1122   60.8666 C.3    1117      M_A    0.0000
   7822 O         287.0503   74.9756   59.7359 O.3    1117      M_A    0.0000
   7823 H         289.0604   75.0699   61.3523 H      1117      M_A    0.0000
   7824 H         289.1989   73.4381   60.6853 H      1117      M_A    0.0000
   7825 H         286.8180   73.0965   60.6324 H      1117      M_A    0.0000
   7826 H         286.4977   74.4973   61.6452 H      1117      M_A    0.0000
   7827 C         285.7882   74.8440   59.1139 C.3    1118      M_A    0.0000
   7828 C         284.6399   75.1012   60.0851 C.3    1118      M_A    0.0000
   7829 O         284.0454   76.3740   59.8314 O.3    1118      M_A    0.0000
   7830 H         285.7401   75.5231   58.2560 H      1118      M_A    0.0000
   7831 H         285.7063   73.8202   58.7311 H      1118      M_A    0.0000
   7832 H         283.8977   74.2927   60.0178 H      1118      M_A    0.0000
   7833 H         284.9968   75.1062   61.1226 H      1118      M_A    0.0000
   7834 C         283.1250   76.3109   58.7611 C.3    1119      M_A    0.0000
   7835 C         281.6883   76.1471   59.2481 C.3    1119      M_A    0.0000
   7836 O         280.8899   77.2556   58.8336 O.3    1119      M_A    0.0000
   7837 H         283.2330   77.2089   58.1434 H      1119      M_A    0.0000
   7838 H         283.3893   75.4475   58.1398 H      1119      M_A    0.0000
   7839 H         281.2711   75.1963   58.8865 H      1119      M_A    0.0000
   7840 H         281.6476   76.1046   60.3437 H      1119      M_A    0.0000
   7841 C         280.3939   77.0742   57.5229 C.3    1120      M_A    0.0000
   7842 C         278.8688   77.0472   57.4847 C.3    1120      M_A    0.0000
   7843 O         278.3819   77.8171   56.3857 O.3    1120      M_A    0.0000
   7844 H         280.7915   77.8649   56.8777 H      1120      M_A    0.0000
   7845 H         280.7749   76.1174   57.1478 H      1120      M_A    0.0000
   7846 H         278.5087   76.0094   57.4366 H      1120      M_A    0.0000
   7847 H         278.4454   77.4780   58.4007 H      1120      M_A    0.0000
   7848 C         278.0799   79.1415   56.7754 C.3    1121      M_A    0.0000
   7849 C         277.6045   79.9914   55.6008 C.3    1121      M_A    0.0000
   7850 O         276.5135   80.8237   55.9945 O.3    1121      M_A    0.0000
   7851 H         277.3310   79.1169   57.5742 H      1121      M_A    0.0000
   7852 H         278.9916   79.5871   57.1894 H      1121      M_A    0.0000
   7853 H         278.4380   80.5871   55.2015 H      1121      M_A    0.0000
   7854 H         277.2543   79.3594   54.7752 H      1121      M_A    0.0000
   7855 C         276.1377   80.5839   57.3355 C.3    1122      M_A    0.0000
   7856 C         275.6360   81.8486   58.0260 C.3    1122      M_A    0.0000
   7857 O         275.9495   81.8165   59.4183 O.3    1122      M_A    0.0000
   7858 H         275.3796   79.7938   57.3583 H      1122      M_A    0.0000
   7859 H         277.0190   80.2132   57.8713 H      1122      M_A    0.0000
   7860 H         276.0602   82.7396   57.5410 H      1122      M_A    0.0000
   7861 H         274.5462   81.9387   57.9367 H      1122      M_A    0.0000
   7862 C         276.4549   80.5550   59.8057 C.3    1123      M_A    0.0000
   7863 C         277.0904   79.8076   58.6371 C.3    1123      M_A    0.0000
   7864 O         277.8486   80.7027   57.8236 O.3    1123      M_A    0.0000
   7865 H         277.1707   80.6925   60.6232 H      1123      M_A    0.0000
   7866 H         275.6189   79.9617   60.1935 H      1123      M_A    0.0000
   7867 H         277.7125   78.9807   59.0088 H      1123      M_A    0.0000
   7868 H         276.3232   79.3528   57.9981 H      1123      M_A    0.0000
   7869 C         278.1897   81.8791   58.5282 C.3    1124      M_A    0.0000
   7870 C         279.3594   82.6162   57.8828 C.3    1124      M_A    0.0000
   7871 O         279.1749   84.0285   57.9782 O.3    1124      M_A    0.0000
   7872 H         277.3065   82.5230   58.5975 H      1124      M_A    0.0000
   7873 H         278.4710   81.5915   59.5478 H      1124      M_A    0.0000
   7874 H         280.3066   82.3045   58.3460 H      1124      M_A    0.0000
   7875 H         279.4408   82.3668   56.8174 H      1124      M_A    0.0000
   7876 C         277.8283   84.3567   58.2541 C.3    1125      M_A    0.0000
   7877 C         277.3102   83.6521   59.5043 C.3    1125      M_A    0.0000
   7878 O         277.1497   84.5839   60.5738 O.3    1125      M_A    0.0000
   7879 H         277.7374   85.4442   58.3469 H      1125      M_A    0.0000
   7880 H         277.2229   84.0456   57.3951 H      1125      M_A    0.0000
   7881 H         276.3676   83.1310   59.2831 H      1125      M_A    0.0000
   7882 H         278.0157   82.8826   59.8421 H      1125      M_A    0.0000
   7883 C         275.8934   85.2282   60.5142 C.3    1126      M_A    0.0000
   7884 C         274.7452   84.2347   60.3641 C.3    1126      M_A    0.0000
   7885 O         273.4891   84.9117   60.4036 O.3    1126      M_A    0.0000
   7886 H         275.7664   85.8469   61.4090 H      1126      M_A    0.0000
   7887 H         275.8989   85.8977   59.6465 H      1126      M_A    0.0000
   7888 H         274.8603   83.6595   59.4341 H      1126      M_A    0.0000
   7889 H         274.7498   83.5029   61.1815 H      1126      M_A    0.0000
   7890 C         272.4456   84.0949   59.9129 C.3    1127      M_A    0.0000
   7891 C         271.8031   84.6768   58.6572 C.3    1127      M_A    0.0000
   7892 O         270.3948   84.4437   58.6616 O.3    1127      M_A    0.0000
   7893 H         272.8365   83.0889   59.7270 H      1127      M_A    0.0000
   7894 H         271.6835   84.0148   60.6965 H      1127      M_A    0.0000
   7895 H         272.0306   85.7496   58.5768 H      1127      M_A    0.0000
   7896 H         272.2111   84.2068   57.7537 H      1127      M_A    0.0000
   7897 C         270.0990   83.0624   58.6242 C.3    1128      M_A    0.0000
   7898 C         269.9572   82.4676   60.0221 C.3    1128      M_A    0.0000
   7899 O         269.1079   83.2831   60.8292 O.3    1128      M_A    0.0000
   7900 H         269.1892   82.9076   58.0345 H      1128      M_A    0.0000
   7901 H         270.9207   82.5558   58.1050 H      1128      M_A    0.0000
   7902 H         269.5798   81.4367   59.9594 H      1128      M_A    0.0000
   7903 H         270.9308   82.4092   60.5246 H      1128      M_A    0.0000
   7904 C         267.7575   83.1818   60.4254 C.3    1129      M_A    0.0000
   7905 C         266.9805   84.4676   60.6921 C.3    1129      M_A    0.0000
   7906 O         265.5994   84.1812   60.9117 O.3    1129      M_A    0.0000
   7907 H         267.7211   82.9107   59.3649 H      1129      M_A    0.0000
   7908 H         267.2966   82.3649   60.9924 H      1129      M_A    0.0000
   7909 H         267.4180   85.0054   61.5454 H      1129      M_A    0.0000
   7910 H         267.0424   85.1488   59.8342 H      1129      M_A    0.0000
   7911 C         264.7752   84.8786   60.0000 C.3    1130      M_A    0.0000
   7912 C         264.0746   86.0668   60.6523 C.3    1130      M_A    0.0000
   7913 O         264.3525   87.2682   59.9332 O.3    1130      M_A    0.0000
   7914 H         265.3792   85.1972   59.1438 H      1130      M_A    0.0000
   7915 H         264.0167   84.1798   59.6289 H      1130      M_A    0.0000
   7916 H         262.9928   85.8807   60.7171 H      1130      M_A    0.0000
   7917 H         264.4244   86.2119   61.6821 H      1130      M_A    0.0000
   7918 C         263.5172   87.3983   58.8009 C.3    1131      M_A    0.0000
   7919 C         263.4044   88.8465   58.3339 C.3    1131      M_A    0.0000
   7920 O         264.1156   89.0347   57.1106 O.3    1131      M_A    0.0000
   7921 H         263.8966   86.7535   58.0010 H      1131      M_A    0.0000
   7922 H         262.5199   87.0352   59.0744 H      1131      M_A    0.0000
   7923 H         262.3473   89.1304   58.2297 H      1131      M_A    0.0000
   7924 H         263.8360   89.5323   59.0737 H      1131      M_A    0.0000
   7925 C         264.5471   90.3723   56.9637 C.3    1132      M_A    0.0000
   7926 C         263.7955   91.0993   55.8525 C.3    1132      M_A    0.0000
   7927 O         263.0518   92.1953   56.3852 O.3    1132      M_A    0.0000
   7928 H         264.4350   90.8912   57.9217 H      1132      M_A    0.0000
   7929 H         265.6151   90.3569   56.7181 H      1132      M_A    0.0000
   7930 H         264.4976   91.4329   55.0748 H      1132      M_A    0.0000
   7931 H         263.0826   90.4286   55.3568 H      1132      M_A    0.0000
   7932 C         263.8509   93.0025   57.2259 C.3    1133      M_A    0.0000
   7933 C         263.3980   94.4596   57.2223 C.3    1133      M_A    0.0000
   7934 O         262.7079   94.7721   58.4323 O.3    1133      M_A    0.0000
   7935 H         263.8370   92.5867   58.2390 H      1133      M_A    0.0000
   7936 H         264.8830   92.9511   56.8606 H      1133      M_A    0.0000
   7937 H         264.2603   95.1246   57.0704 H      1133      M_A    0.0000
   7938 H         262.7086   94.6544   56.3913 H      1133      M_A    0.0000
   7939 C         262.0605   96.0255   58.3494 C.3    1134      M_A    0.0000
   7940 C         260.8576   95.9895   57.4116 C.3    1134      M_A    0.0000
   7941 O         259.8046   96.8106   57.9164 O.3    1134      M_A    0.0000
   7942 H         261.7679   96.3437   59.3557 H      1134      M_A    0.0000
   7943 H         262.7851   96.7545   57.9689 H      1134      M_A    0.0000
   7944 H         261.1559   96.2991   56.3996 H      1134      M_A    0.0000
   7945 H         260.4630   94.9700   57.3181 H      1134      M_A    0.0000
   7946 C         258.8411   97.0867   56.9202 C.3    1135      M_A    0.0000
   7947 C         257.7793   98.0694   57.4051 C.3    1135      M_A    0.0000
   7948 O         257.8081   99.2634   56.6234 O.3    1135      M_A    0.0000
   7949 H         259.3493   97.4632   56.0261 H      1135      M_A    0.0000
   7950 H         258.3540   96.1423   56.6516 H      1135      M_A    0.0000
   7951 H         256.7861   97.5983   57.3791 H      1135      M_A    0.0000
   7952 H         257.9571   98.3559   58.4492 H      1135      M_A    0.0000
   7953 C         257.4198  100.3892   57.3841 C.3    1136      M_A    0.0000
   7954 C         257.2770  101.6416   56.5244 C.3    1136      M_A    0.0000
   7955 O         256.2947  102.5182   57.0763 O.3    1136      M_A    0.0000
   7956 H         256.4857  100.1611   57.9086 H      1136      M_A    0.0000
   7957 H         258.1911  100.5658   58.1425 H      1136      M_A    0.0000
   7958 H         258.2494  102.1445   56.4220 H      1136      M_A    0.0000
   7959 H         256.9543  101.3852   55.5076 H      1136      M_A    0.0000
   7960 C         255.6038  103.2230   56.0650 C.3    1137      M_A    0.0000
   7961 C         254.6546  104.2697   56.6407 C.3    1137      M_A    0.0000
   7962 O         254.3526  105.2639   55.6618 O.3    1137      M_A    0.0000
   7963 H         256.3321  103.6803   55.3868 H      1137      M_A    0.0000
   7964 H         255.0219  102.4970   55.4857 H      1137      M_A    0.0000
   7965 H         253.7405  103.7875   57.0161 H      1137      M_A    0.0000
   7966 H         255.1080  104.7810   57.4991 H      1137      M_A    0.0000
   7967 C         253.0796  105.8364   55.8817 C.3    1138      M_A    0.0000
   7968 C         252.8861  107.1271   55.0912 C.3    1138      M_A    0.0000
   7969 O         251.5107  107.3058   54.7535 O.3    1138      M_A    0.0000
   7970 H         252.3085  105.1001   55.6312 H      1138      M_A    0.0000
   7971 H         252.9903  106.0590   56.9512 H      1138      M_A    0.0000
   7972 H         253.2721  107.9835   55.6626 H      1138      M_A    0.0000
   7973 H         253.4542  107.1016   54.1529 H      1138      M_A    0.0000
   7974 C         250.7805  107.8549   55.8315 C.3    1139      M_A    0.0000
   7975 C         250.6239  109.3676   55.7074 C.3    1139      M_A    0.0000
   7976 O         249.4016  109.6915   55.0449 O.3    1139      M_A    0.0000
   7977 H         249.8053  107.3601   55.8914 H      1139      M_A    0.0000
   7978 H         251.3239  107.6294   56.7562 H      1139      M_A    0.0000
   7979 H         250.6773  109.8373   56.7001 H      1139      M_A    0.0000
   7980 H         251.4418  109.7999   55.1176 H      1139      M_A    0.0000
   7981 C         249.4948  110.9249   54.3615 C.3    1140      M_A    0.0000
   7982 C         250.3606  110.8232   53.1092 C.3    1140      M_A    0.0000
   7983 O         250.0959  111.9146   52.2279 O.3    1140      M_A    0.0000
   7984 H         248.4863  111.2753   54.1174 H      1140      M_A    0.0000
   7985 H         249.9434  111.6555   55.0443 H      1140      M_A    0.0000
   7986 H         251.4240  110.7813   53.3855 H      1140      M_A    0.0000
   7987 H         250.1484  109.8979   52.5593 H      1140      M_A    0.0000
   7988 C         250.4031  113.1542   52.8327 C.3    1141      M_A    0.0000
   7989 C         250.3631  114.3063   51.8332 C.3    1141      M_A    0.0000
   7990 O         249.9579  115.5140   52.4774 O.3    1141      M_A    0.0000
   7991 H         249.7111  113.3276   53.6637 H      1141      M_A    0.0000
   7992 H         251.4133  113.0834   53.2519 H      1141      M_A    0.0000
   7993 H         251.3428  114.4215   51.3474 H      1141      M_A    0.0000
   7994 H         249.6430  114.1047   51.0303 H      1141      M_A    0.0000
   7995 C         249.8860  116.5891   51.5631 C.3    1142      M_A    0.0000
   7996 C         249.3285  117.8547   52.2077 C.3    1142      M_A    0.0000
   7997 O         249.7898  119.0143   51.5146 O.3    1142      M_A    0.0000
   7998 H         250.8808  116.7659   51.1405 H      1142      M_A    0.0000
   7999 H         249.2254  116.2890   50.7416 H      1142      M_A    0.0000
   8000 H         248.2300  117.8150   52.2338 H      1142      M_A    0.0000
   8001 H         249.6584  117.9422   53.2504 H      1142      M_A    0.0000
   8002 C         249.3463  120.2013   52.1401 C.3    1143      M_A    0.0000
   8003 C         248.4340  121.0218   51.2331 C.3    1143      M_A    0.0000
   8004 O         247.0899  120.9885   51.7130 O.3    1143      M_A    0.0000
   8005 H         248.8435  119.9444   53.0785 H      1143      M_A    0.0000
   8006 H         250.2292  120.8005   52.3904 H      1143      M_A    0.0000
   8007 H         248.8052  122.0538   51.1549 H      1143      M_A    0.0000
   8008 H         248.4286  120.6182   50.2129 H      1143      M_A    0.0000
   8009 C         246.9045  121.8794   52.7941 C.3    1144      M_A    0.0000
   8010 C         245.5161  122.5122   52.7850 C.3    1144      M_A    0.0000
   8011 O         244.5936  121.7057   53.5175 O.3    1144      M_A    0.0000
   8012 H         247.0895  121.3459   53.7325 H      1144      M_A    0.0000
   8013 H         247.6562  122.6725   52.7099 H      1144      M_A    0.0000
   8014 H         245.5621  123.5340   53.1885 H      1144      M_A    0.0000
   8015 H         245.1325  122.6023   51.7610 H      1144      M_A    0.0000
   8016 C         243.2705  121.8826   53.0540 C.3    1145      M_A    0.0000
   8017 C         243.0459  121.2270   51.6946 C.3    1145      M_A    0.0000
   8018 O         241.6503  121.1306   51.4099 O.3    1145      M_A    0.0000
   8019 H         242.5741  121.4895   53.8023 H      1145      M_A    0.0000
   8020 H         243.0863  122.9592   52.9631 H      1145      M_A    0.0000
   8021 H         243.5761  121.7869   50.9109 H      1145      M_A    0.0000
   8022 H         243.4558  120.2094   51.6771 H      1145      M_A    0.0000
   8023 C         241.2518  122.0851   50.4471 C.3    1146      M_A    0.0000
   8024 C         239.7975  122.5100   50.6277 C.3    1146      M_A    0.0000
   8025 O         239.6965  123.9322   50.6974 O.3    1146      M_A    0.0000
   8026 H         241.9249  122.9475   50.4989 H      1146      M_A    0.0000
   8027 H         241.3685  121.6327   49.4557 H      1146      M_A    0.0000
   8028 H         239.1798  122.1047   49.8133 H      1146      M_A    0.0000
   8029 H         239.3830  122.1052   51.5594 H      1146      M_A    0.0000
   8030 C         238.6749  124.3353   51.5866 C.3    1147      M_A    0.0000
   8031 C         238.9261  125.7284   52.1562 C.3    1147      M_A    0.0000
   8032 O         238.0613  126.6837   51.5418 O.3    1147      M_A    0.0000
   8033 H         237.7111  124.2879   51.0686 H      1147      M_A    0.0000
   8034 H         238.6433  123.6152   52.4122 H      1147      M_A    0.0000
   8035 H         238.8010  125.7200   53.2485 H      1147      M_A    0.0000
   8036 H         239.9579  126.0498   51.9667 H      1147      M_A    0.0000
   8037 C         238.3990  128.0036   51.9169 C.3    1148      M_A    0.0000
   8038 C         237.4734  129.0360   51.2802 C.3    1148      M_A    0.0000
   8039 O         237.1753  130.0800   52.2070 O.3    1148      M_A    0.0000
   8040 H         238.3839  128.0795   53.0094 H      1148      M_A    0.0000
   8041 H         239.4259  128.1958   51.5855 H      1148      M_A    0.0000
   8042 H         237.9253  129.4348   50.3605 H      1148      M_A    0.0000
   8043 H         236.5213  128.5791   50.9826 H      1148      M_A    0.0000
   8044 C         235.9241  130.6757   51.9303 C.3    1149      M_A    0.0000
   8045 C         235.7484  132.0061   52.6565 C.3    1149      M_A    0.0000
   8046 O         235.5345  133.0626   51.7206 O.3    1149      M_A    0.0000
   8047 H         235.8191  130.7997   50.8472 H      1149      M_A    0.0000
   8048 H         235.1411  129.9844   52.2622 H      1149      M_A    0.0000
   8049 H         234.9220  131.9380   53.3785 H      1149      M_A    0.0000
   8050 H         236.6448  132.2578   53.2370 H      1149      M_A    0.0000
   8051 C         234.7369  134.0898   52.2736 C.3    1150      M_A    0.0000
   8052 C         235.4577  135.4346   52.2825 C.3    1150      M_A    0.0000
   8053 O         234.5440  136.4940   51.9989 O.3    1150      M_A    0.0000
   8054 H         233.7953  134.1496   51.7174 H      1150      M_A    0.0000
   8055 H         234.4952  133.8102   53.3054 H      1150      M_A    0.0000
   8056 H         235.9616  135.5887   53.2476 H      1150      M_A    0.0000
   8057 H         236.2430  135.4642   51.5169 H      1150      M_A    0.0000
   8058 C         234.4752  137.4174   53.0664 C.3    1151      M_A    0.0000
   8059 C         234.6706  138.8554   52.5951 C.3    1151      M_A    0.0000
   8060 O         234.6111  139.7568   53.7004 O.3    1151      M_A    0.0000
   8061 H         233.5164  137.2972   53.5817 H      1151      M_A    0.0000
   8062 H         235.2687  137.1673   53.7799 H      1151      M_A    0.0000
   8063 H         235.6219  138.9509   52.0521 H      1151      M_A    0.0000
   8064 H         233.8827  139.1479   51.8898 H      1151      M_A    0.0000
   8065 C         234.6109  141.1030   53.2706 C.3    1152      M_A    0.0000
   8066 C         235.8452  141.8597   53.7523 C.3    1152      M_A    0.0000
   8067 O         236.7304  142.1185   52.6627 O.3    1152      M_A    0.0000
   8068 H         234.5322  141.1294   52.1786 H      1152      M_A    0.0000
   8069 H         233.7164  141.5870   53.6792 H      1152      M_A    0.0000
   8070 H         235.5471  142.7910   54.2552 H      1152      M_A    0.0000
   8071 H         236.4006  141.2729   54.4946 H      1152      M_A    0.0000
   8072 C         237.6317  143.1638   52.9656 C.3    1153      M_A    0.0000
   8073 C         239.0862  142.7352   52.7955 C.3    1153      M_A    0.0000
   8074 O         239.9184  143.8709   52.5597 O.3    1153      M_A    0.0000
   8075 H         237.3988  144.0299   52.3370 H      1153      M_A    0.0000
   8076 H         237.4684  143.4579   54.0087 H      1153      M_A    0.0000
   8077 H         239.4210  142.1704   53.6775 H      1153      M_A    0.0000
   8078 H         239.1991  142.0613   51.9371 H      1153      M_A    0.0000
   8079 C         240.3420  144.4622   53.7712 C.3    1154      M_A    0.0000
   8080 C         241.0432  145.7981   53.5437 C.3    1154      M_A    0.0000
   8081 O         240.4726  146.8104   54.3728 O.3    1154      M_A    0.0000
   8082 H         239.4778  144.5772   54.4341 H      1154      M_A    0.0000
   8083 H         241.0422  143.7723   54.2561 H      1154      M_A    0.0000
   8084 H         242.1230  145.6955   53.7237 H      1154      M_A    0.0000
   8085 H         240.9343  146.1263   52.5024 H      1154      M_A    0.0000
   8086 C         240.8466  148.1033   53.9422 C.3    1155      M_A    0.0000
   8087 C         239.6518  149.0486   53.8587 C.3    1155      M_A    0.0000
   8088 O         240.0726  150.4028   54.0229 O.3    1155      M_A    0.0000
   8089 H         241.6151  148.4962   54.6164 H      1155      M_A    0.0000
   8090 H         241.2953  148.0102   52.9466 H      1155      M_A    0.0000
   8091 H         239.1220  148.9074   52.9056 H      1155      M_A    0.0000
   8092 H         238.9240  148.8324   54.6507 H      1155      M_A    0.0000
   8093 C         239.3025  151.2835   53.2303 C.3    1156      M_A    0.0000
   8094 C         239.4334  152.7326   53.6896 C.3    1156      M_A    0.0000
   8095 O         239.3971  153.6177   52.5702 O.3    1156      M_A    0.0000
   8096 H         239.5992  151.1728   52.1819 H      1156      M_A    0.0000
   8097 H         238.2526  150.9793   53.3115 H      1156      M_A    0.0000
   8098 H         238.6435  152.9735   54.4156 H      1156      M_A    0.0000
   8099 H         240.3873  152.8959   54.2067 H      1156      M_A    0.0000
   8100 C         240.0000  154.8594   52.8727 C.3    1157      M_A    0.0000
   8101 C         239.1295  156.0387   52.4490 C.3    1157      M_A    0.0000
   8102 O         239.2121  157.0921   53.4090 O.3    1157      M_A    0.0000
   8103 H         240.2222  154.8970   53.9445 H      1157      M_A    0.0000
   8104 H         240.9535  154.9110   52.3346 H      1157      M_A    0.0000
   8105 H         239.4226  156.3863   51.4479 H      1157      M_A    0.0000
   8106 H         238.0757  155.7426   52.3760 H      1157      M_A    0.0000
   8107 C         238.0024  157.8185   53.4850 C.3    1158      M_A    0.0000
   8108 C         238.2360  159.2897   53.8156 C.3    1158      M_A    0.0000
   8109 O         238.2015  160.0811   52.6280 O.3    1158      M_A    0.0000
   8110 H         237.4586  157.7071   52.5408 H      1158      M_A    0.0000
   8111 H         237.3893  157.3706   54.2754 H      1158      M_A    0.0000
   8112 H         237.4936  159.6364   54.5488 H      1158      M_A    0.0000
   8113 H         239.2193  159.4364   54.2797 H      1158      M_A    0.0000
   8114 C         238.8631  161.3164   52.8103 C.3    1159      M_A    0.0000
   8115 C         238.4355  162.3546   51.7771 C.3    1159      M_A    0.0000
   8116 O         238.1845  163.6118   52.4051 O.3    1159      M_A    0.0000
   8117 H         238.6789  161.6736   53.8291 H      1159      M_A    0.0000
   8118 H         239.9402  161.1398   52.7106 H      1159      M_A    0.0000
   8119 H         239.1996  162.4454   50.9916 H      1159      M_A    0.0000
   8120 H         237.5103  162.0488   51.2729 H      1159      M_A    0.0000
   8121 C         237.4069  164.4558   51.5805 C.3    1160      M_A    0.0000
   8122 C         236.5868  165.4543   52.3920 C.3    1160      M_A    0.0000
   8123 O         236.6894  166.7617   51.8279 O.3    1160      M_A    0.0000
   8124 H         238.0658  164.9688   50.8718 H      1160      M_A    0.0000
   8125 H         236.7241  163.8243   51.0007 H      1160      M_A    0.0000
   8126 H         235.5393  165.1255   52.4514 H      1160      M_A    0.0000
   8127 H         236.9505  165.5130   53.4254 H      1160      M_A    0.0000
   8128 C         235.6790  167.6182   52.3205 C.3    1161      M_A    0.0000
   8129 C         235.5548  167.5454   53.8395 C.3    1161      M_A    0.0000
   8130 O         234.8466  168.6799   54.3387 O.3    1161      M_A    0.0000
   8131 H         235.8853  168.6416   51.9893 H      1161      M_A    0.0000
   8132 H         234.7278  167.3101   51.8717 H      1161      M_A    0.0000
   8133 H         235.0653  166.6064   54.1356 H      1161      M_A    0.0000
   8134 H         236.5438  167.5404   54.3145 H      1161      M_A    0.0000
   8135 C         233.8385  169.0966   53.4404 C.3    1162      M_A    0.0000
   8136 C         232.4417  168.9502   54.0368 C.3    1162      M_A    0.0000
   8137 O         231.8671  170.2330   54.2864 O.3    1162      M_A    0.0000
   8138 H         234.0334  170.1315   53.1396 H      1162      M_A    0.0000
   8139 H         233.9079  168.4719   52.5425 H      1162      M_A    0.0000
   8140 H         231.8056  168.3498   53.3707 H      1162      M_A    0.0000
   8141 H         232.4776  168.4146   54.9937 H      1162      M_A    0.0000
   8142 C         230.4714  170.1439   54.4893 C.3    1163      M_A    0.0000
   8143 C         229.8984  171.4168   55.1053 C.3    1163      M_A    0.0000
   8144 O         228.6557  171.7552   54.4896 O.3    1163      M_A    0.0000
   8145 H         229.9856  169.9130   53.5352 H      1163      M_A    0.0000
   8146 H         230.2826  169.3050   55.1689 H      1163      M_A    0.0000
   8147 H         229.7861  171.2951   56.1923 H      1163      M_A    0.0000
   8148 H         230.5792  172.2647   54.9589 H      1163      M_A    0.0000
   8149 C         228.1976  173.0235   54.9122 C.3    1164      M_A    0.0000
   8150 C         226.8710  173.4014   54.2599 C.3    1164      M_A    0.0000
   8151 O         225.7770  173.0255   55.0963 O.3    1164      M_A    0.0000
   8152 H         228.1166  173.0285   56.0044 H      1164      M_A    0.0000
   8153 H         228.9543  173.7654   54.6326 H      1164      M_A    0.0000
   8154 H         226.8514  174.4776   54.0354 H      1164      M_A    0.0000
   8155 H         226.7439  172.8843   53.3006 H      1164      M_A    0.0000
   8156 C         224.8005  172.3009   54.3763 C.3    1165      M_A    0.0000
   8157 C         223.3867  172.6001   54.8658 C.3    1165      M_A    0.0000
   8158 O         222.4961  172.7520   53.7605 O.3    1165      M_A    0.0000
   8159 H         224.9049  172.5238   53.3091 H      1165      M_A    0.0000
   8160 H         225.0045  171.2328   54.5133 H      1165      M_A    0.0000
   8161 H         223.0457  171.8082   55.5481 H      1165      M_A    0.0000
   8162 H         223.3596  173.5345   55.4402 H      1165      M_A    0.0000
   8163 C         221.1895  173.0764   54.1898 C.3    1166      M_A    0.0000
   8164 C         220.1759  172.0020   53.8068 C.3    1166      M_A    0.0000
   8165 O         219.1456  171.9124   54.7909 O.3    1166      M_A    0.0000
   8166 H         221.1998  173.2421   55.2724 H      1166      M_A    0.0000
   8167 H         220.9027  174.0205   53.7128 H      1166      M_A    0.0000
   8168 H         219.7602  172.2104   52.8105 H      1166      M_A    0.0000
   8169 H         220.6541  171.0167   53.7413 H      1166      M_A    0.0000
   8170 C         218.1609  172.9080   54.6008 C.3    1167      M_A    0.0000
   8171 C         217.0122  172.7767   55.5965 C.3    1167      M_A    0.0000
   8172 O         216.3585  174.0332   55.7749 O.3    1167      M_A    0.0000
   8173 H         218.6322  173.8943   54.6688 H      1167      M_A    0.0000
   8174 H         217.7639  172.7997   53.5850 H      1167      M_A    0.0000
   8175 H         216.3065  172.0028   55.2618 H      1167      M_A    0.0000
   8176 H         217.3792  172.4549   56.5791 H      1167      M_A    0.0000
   8177 C         215.4138  173.9803   56.8245 C.3    1168      M_A    0.0000
   8178 C         214.3486  175.0649   56.6934 C.3    1168      M_A    0.0000
   8179 O         213.2512  174.5965   55.9098 O.3    1168      M_A    0.0000
   8180 H         214.9617  172.9831   56.8485 H      1168      M_A    0.0000
   8181 H         215.9511  174.1235   57.7690 H      1168      M_A    0.0000
   8182 H         214.0175  175.3939   57.6889 H      1168      M_A    0.0000
   8183 H         214.7531  175.9541   56.1938 H      1168      M_A    0.0000
   8184 C         212.8023  175.5851   55.0053 C.3    1169      M_A    0.0000
   8185 C         211.3668  175.3381   54.5508 C.3    1169      M_A    0.0000
   8186 O         210.6651  176.5739   54.4154 O.3    1169      M_A    0.0000
   8187 H         212.9050  176.5702   55.4727 H      1169      M_A    0.0000
   8188 H         213.4602  175.5638   54.1290 H      1169      M_A    0.0000
   8189 H         211.3591  174.7688   53.6102 H      1169      M_A    0.0000
   8190 H         210.8222  174.7297   55.2836 H      1169      M_A    0.0000
   8191 C         209.2894  176.4214   54.7001 C.3    1170      M_A    0.0000
   8192 C         208.4430  177.5068   54.0415 C.3    1170      M_A    0.0000
   8193 O         207.4276  176.9234   53.2252 O.3    1170      M_A    0.0000
   8194 H         208.9676  175.4232   54.3843 H      1170      M_A    0.0000
   8195 H         209.1613  176.4825   55.7869 H      1170      M_A    0.0000
   8196 H         208.0105  178.1674   54.8067 H      1170      M_A    0.0000
   8197 H         209.0576  178.1455   53.3949 H      1170      M_A    0.0000
   8198 C         206.7825  177.8958   52.4281 C.3    1171      M_A    0.0000
   8199 C         205.2981  178.0172   52.7596 C.3    1171      M_A    0.0000
   8200 O         204.8702  179.3747   52.6497 O.3    1171      M_A    0.0000
   8201 H         207.2950  178.8559   52.5512 H      1171      M_A    0.0000
   8202 H         206.8882  177.5957   51.3793 H      1171      M_A    0.0000
   8203 H         204.7083  177.3579   52.1068 H      1171      M_A    0.0000
   8204 H         205.0977  177.6919   53.7881 H      1171      M_A    0.0000
   8205 C         203.8639  179.6779   53.5942 C.3    1172      M_A    0.0000
   8206 C         203.1034  180.9508   53.2343 C.3    1172      M_A    0.0000
   8207 O         201.8687  180.6317   52.5929 O.3    1172      M_A    0.0000
   8208 H         203.1850  178.8228   53.6801 H      1172      M_A    0.0000
   8209 H         204.3468  179.8168   54.5683 H      1172      M_A    0.0000
   8210 H         202.9406  181.5626   54.1333 H      1172      M_A    0.0000
   8211 H         203.6834  181.5716   52.5401 H      1172      M_A    0.0000
   8212 C         201.5453  181.5772   51.5938 C.3    1173      M_A    0.0000
   8213 C         200.0450  181.6353   51.3222 C.3    1173      M_A    0.0000
   8214 O         199.5661  182.9747   51.4427 O.3    1173      M_A    0.0000
   8215 H         201.9314  182.5579   51.8915 H      1173      M_A    0.0000
   8216 H         202.0613  181.2837   50.6724 H      1173      M_A    0.0000
   8217 H         199.8226  181.2189   50.3292 H      1173      M_A    0.0000
   8218 H         199.4913  181.0222   52.0443 H      1173      M_A    0.0000
   8219 C         198.2526  183.0095   51.9628 C.3    1174      M_A    0.0000
   8220 C         197.4624  184.2085   51.4468 C.3    1174      M_A    0.0000
   8221 O         196.0674  184.0318   51.6928 O.3    1174      M_A    0.0000
   8222 H         197.7471  182.0688   51.7201 H      1174      M_A    0.0000
   8223 H         198.3241  183.0753   53.0545 H      1174      M_A    0.0000
   8224 H         197.8353  185.1351   51.9066 H      1174      M_A    0.0000
   8225 H         197.5925  184.3278   50.3640 H      1174      M_A    0.0000
   8226 C         195.6673  184.6737   52.8865 C.3    1175      M_A    0.0000
   8227 C         194.7163  183.8112   53.7112 C.3    1175      M_A    0.0000
   8228 O         193.7955  184.6302   54.4318 O.3    1175      M_A    0.0000
   8229 H         196.5584  184.9424   53.4637 H      1175      M_A    0.0000
   8230 H         195.1560  185.6040   52.6138 H      1175      M_A    0.0000
   8231 H         194.1917  183.0965   53.0609 H      1175      M_A    0.0000
   8232 H         195.2676  183.2117   54.4463 H      1175      M_A    0.0000
   8233 C         193.6211  185.8856   53.8069 C.3    1176      M_A    0.0000
   8234 C         192.3699  186.6047   54.3023 C.3    1176      M_A    0.0000
   8235 O         191.5915  187.0714   53.2004 O.3    1176      M_A    0.0000
   8236 H         194.5173  186.4936   53.9702 H      1176      M_A    0.0000
   8237 H         193.5284  185.7151   52.7282 H      1176      M_A    0.0000
   8238 H         191.7833  185.9406   54.9535 H      1176      M_A    0.0000
   8239 H         192.6343  187.4783   54.9112 H      1176      M_A    0.0000
   8240 C         190.2791  187.4093   53.6006 C.3    1177      M_A    0.0000
   8241 C         189.2291  186.5316   52.9258 C.3    1177      M_A    0.0000
   8242 O         188.1466  186.2699   53.8188 O.3    1177      M_A    0.0000
   8243 H         190.2093  187.3412   54.6915 H      1177      M_A    0.0000
   8244 H         190.1002  188.4541   53.3217 H      1177      M_A    0.0000
   8245 H         188.8769  187.0060   51.9986 H      1177      M_A    0.0000
   8246 H         189.6554  185.5637   52.6339 H      1177      M_A    0.0000
   8247 C         186.9289  186.1047   53.1210 C.3    1178      M_A    0.0000
   8248 C         185.8589  185.4407   53.9827 C.3    1178      M_A    0.0000
   8249 O         184.7912  186.3513   54.2447 O.3    1178      M_A    0.0000
   8250 H         186.5919  187.0802   52.7543 H      1178      M_A    0.0000
   8251 H         187.1241  185.4718   52.2478 H      1178      M_A    0.0000
   8252 H         185.4934  184.5254   53.4954 H      1178      M_A    0.0000
   8253 H         186.2713  185.1307   54.9510 H      1178      M_A    0.0000
   8254 C         183.8473  185.7980   55.1391 C.3    1179      M_A    0.0000
   8255 C         182.8194  186.8278   55.5984 C.3    1179      M_A    0.0000
   8256 O         181.5004  186.4087   55.2486 O.3    1179      M_A    0.0000
   8257 H         183.3616  184.9408   54.6608 H      1179      M_A    0.0000
   8258 H         184.3911  185.4249   56.0145 H      1179      M_A    0.0000
   8259 H         182.9108  186.9985   56.6808 H      1179      M_A    0.0000
   8260 H         182.9941  187.7984   55.1176 H      1179      M_A    0.0000
   8261 C         180.5222  187.0978   56.0003 C.3    1180      M_A    0.0000
   8262 C         179.7181  186.1585   56.8943 C.3    1180      M_A    0.0000
   8263 O         180.4220  185.8987   58.1088 O.3    1180      M_A    0.0000
   8264 H         181.0106  187.8818   56.5888 H      1180      M_A    0.0000
   8265 H         179.8398  187.5880   55.2966 H      1180      M_A    0.0000
   8266 H         178.7228  186.5819   57.0917 H      1180      M_A    0.0000
   8267 H         179.5498  185.1938   56.3994 H      1180      M_A    0.0000
   8268 C         181.1999  187.0104   58.5036 C.3    1181      M_A    0.0000
   8269 C         180.3419  188.2398   58.7875 C.3    1181      M_A    0.0000
   8270 O         180.7062  188.8268   60.0367 O.3    1181      M_A    0.0000
   8271 H         181.7982  186.7353   59.3787 H      1181      M_A    0.0000
   8272 H         181.8938  187.2430   57.6877 H      1181      M_A    0.0000
   8273 H         180.4315  188.9634   57.9644 H      1181      M_A    0.0000
   8274 H         179.2797  187.9718   58.8477 H      1181      M_A    0.0000
   8275 C         180.6662  190.2380   59.9764 C.3    1182      M_A    0.0000
   8276 C         179.3392  190.7518   59.4256 C.3    1182      M_A    0.0000
   8277 O         178.9015  191.8949   60.1601 O.3    1182      M_A    0.0000
   8278 H         180.8639  190.6441   60.9741 H      1182      M_A    0.0000
   8279 H         181.4762  190.5702   59.3168 H      1182      M_A    0.0000
   8280 H         179.4351  190.9778   58.3539 H      1182      M_A    0.0000
   8281 H         178.5567  189.9874   59.5104 H      1182      M_A    0.0000
   8282 C         178.6506  192.9930   59.3069 C.3    1183      M_A    0.0000
   8283 C         179.6933  194.0953   59.4681 C.3    1183      M_A    0.0000
   8284 O         179.0621  195.3431   59.7555 O.3    1183      M_A    0.0000
   8285 H         178.6071  192.6385   58.2715 H      1183      M_A    0.0000
   8286 H         177.6643  193.3982   59.5602 H      1183      M_A    0.0000
   8287 H         180.4156  193.8228   60.2510 H      1183      M_A    0.0000
   8288 H         180.2730  194.2252   58.5457 H      1183      M_A    0.0000
   8289 C         178.6239  195.9849   58.5753 C.3    1184      M_A    0.0000
   8290 C         177.4004  195.3024   57.9710 C.3    1184      M_A    0.0000
   8291 O         176.3977  196.2662   57.6489 O.3    1184      M_A    0.0000
   8292 H         178.4203  197.0382   58.7959 H      1184      M_A    0.0000
   8293 H         179.4439  195.9509   57.8488 H      1184      M_A    0.0000
   8294 H         177.6905  194.7166   57.0869 H      1184      M_A    0.0000
   8295 H         176.9572  194.5917   58.6797 H      1184      M_A    0.0000
   8296 C         175.1581  195.6487   57.3677 C.3    1185      M_A    0.0000
   8297 C         174.3179  196.4661   56.3910 C.3    1185      M_A    0.0000
   8298 O         174.3523  195.8807   55.0895 O.3    1185      M_A    0.0000
   8299 H         175.3406  194.6394   56.9836 H      1185      M_A    0.0000
   8300 H         174.6092  195.5499   58.3112 H      1185      M_A    0.0000
   8301 H         173.2867  196.5571   56.7614 H      1185      M_A    0.0000
   8302 H         174.7044  197.4891   56.3014 H      1185      M_A    0.0000
   8303 C         174.0424  196.8280   54.0879 C.3    1186      M_A    0.0000
   8304 C         172.7111  196.5276   53.4057 C.3    1186      M_A    0.0000
   8305 O         171.8088  197.6223   53.5652 O.3    1186      M_A    0.0000
   8306 H         174.0425  197.8296   54.5310 H      1186      M_A    0.0000
   8307 H         174.8403  196.7978   53.3370 H      1186      M_A    0.0000
   8308 H         172.8730  196.2944   52.3435 H      1186      M_A    0.0000
   8309 H         172.2351  195.6427   53.8463 H      1186      M_A    0.0000
   8310 C         172.5008  198.8444   53.7218 C.3    1187      M_A    0.0000
   8311 C         171.6934  200.0317   53.2056 C.3    1187      M_A    0.0000
   8312 O         171.0762  200.7264   54.2893 O.3    1187      M_A    0.0000
   8313 H         172.7632  198.9737   54.7772 H      1187      M_A    0.0000
   8314 H         173.4357  198.7775   53.1536 H      1187      M_A    0.0000
   8315 H         172.3368  200.7008   52.6163 H      1187      M_A    0.0000
   8316 H         170.8945  199.6995   52.5309 H      1187      M_A    0.0000
   8317 C         170.0147  199.9778   54.8459 C.3    1188      M_A    0.0000
   8318 C         168.6950  200.7431   54.8158 C.3    1188      M_A    0.0000
   8319 O         167.9347  200.3844   53.6620 O.3    1188      M_A    0.0000
   8320 H         169.9313  199.0249   54.3126 H      1188      M_A    0.0000
   8321 H         170.2707  199.7533   55.8877 H      1188      M_A    0.0000
   8322 H         168.1290  200.5600   55.7405 H      1188      M_A    0.0000
   8323 H         168.8697  201.8253   54.7706 H      1188      M_A    0.0000
   8324 C         166.7356  201.1278   53.5812 C.3    1189      M_A    0.0000
   8325 C         166.9275  202.4482   52.8409 C.3    1189      M_A    0.0000
   8326 O         165.8197  202.7035   51.9776 O.3    1189      M_A    0.0000
   8327 H         165.9662  200.5137   53.1012 H      1189      M_A    0.0000
   8328 H         166.4009  201.3396   54.6031 H      1189      M_A    0.0000
   8329 H         167.0722  203.2682   53.5590 H      1189      M_A    0.0000
   8330 H         167.8302  202.4213   52.2179 H      1189      M_A    0.0000
   8331 C         164.5994  202.7101   52.6901 C.3    1190      M_A    0.0000
   8332 C         163.6726  203.8320   52.2311 C.3    1190      M_A    0.0000
   8333 O         162.5357  203.2964   51.5539 O.3    1190      M_A    0.0000
   8334 H         164.1184  201.7318   52.5842 H      1190      M_A    0.0000
   8335 H         164.8300  202.8528   53.7520 H      1190      M_A    0.0000
   8336 H         163.3722  204.4509   53.0888 H      1190      M_A    0.0000
   8337 H         164.1856  204.5034   51.5313 H      1190      M_A    0.0000
   8338 C         161.5025  204.2539   51.4410 C.3    1191      M_A    0.0000
   8339 C         160.7817  204.1651   50.0991 C.3    1191      M_A    0.0000
   8340 O         159.3871  204.4229   50.2621 O.3    1191      M_A    0.0000
   8341 H         160.8036  204.1255   52.2744 H      1191      M_A    0.0000
   8342 H         161.9529  205.2485   51.5364 H      1191      M_A    0.0000
   8343 H         161.2352  204.8603   49.3779 H      1191      M_A    0.0000
   8344 H         160.8820  203.1624   49.6652 H      1191      M_A    0.0000
   8345 C         159.0654  205.7577   49.9281 C.3    1192      M_A    0.0000
   8346 C         157.6116  205.9051   49.4888 C.3    1192      M_A    0.0000
   8347 O         156.9259  206.8318   50.3308 O.3    1192      M_A    0.0000
   8348 H         159.2871  206.4037   50.7843 H      1192      M_A    0.0000
   8349 H         159.7180  206.0653   49.1030 H      1192      M_A    0.0000
   8350 H         157.5631  206.2117   48.4340 H      1192      M_A    0.0000
   8351 H         157.0821  204.9465   49.5558 H      1192      M_A    0.0000
   8352 C         155.5260  206.7524   50.1551 C.3    1193      M_A    0.0000
   8353 C         154.9461  208.0395   49.5760 C.3    1193      M_A    0.0000
   8354 O         153.8667  207.7473   48.6888 O.3    1193      M_A    0.0000
   8355 H         155.2941  205.8925   49.5176 H      1193      M_A    0.0000
   8356 H         155.0730  206.5694   51.1362 H      1193      M_A    0.0000
   8357 H         154.6271  208.7103   50.3867 H      1193      M_A    0.0000
   8358 H         155.7036  208.5881   49.0024 H      1193      M_A    0.0000
   8359 C         153.1551  206.5980   49.1007 C.3    1194      M_A    0.0000
   8360 C         151.6453  206.8167   49.0725 C.3    1194      M_A    0.0000
   8361 O         151.0494  206.0587   48.0198 O.3    1194      M_A    0.0000
   8362 H         153.4440  205.7527   48.4671 H      1194      M_A    0.0000
   8363 H         153.4602  206.3626   50.1268 H      1194      M_A    0.0000
   8364 H         151.2065  206.5606   50.0476 H      1194      M_A    0.0000
   8365 H         151.4048  207.8722   48.8941 H      1194      M_A    0.0000
   8366 C         149.9638  206.7494   47.4356 C.3    1195      M_A    0.0000
   8367 C         150.4239  207.9401   46.5998 C.3    1195      M_A    0.0000
   8368 O         149.4756  208.2263   45.5719 O.3    1195      M_A    0.0000
   8369 H         149.3759  206.0478   46.8342 H      1195      M_A    0.0000
   8370 H         149.3202  207.1120   48.2452 H      1195      M_A    0.0000
   8371 H         150.5906  208.8148   47.2448 H      1195      M_A    0.0000
   8372 H         151.3838  207.7297   46.1118 H      1195      M_A    0.0000
   8373 C         148.3939  208.9908   46.0643 C.3    1196      M_A    0.0000
   8374 C         147.3674  209.2992   44.9784 C.3    1196      M_A    0.0000
   8375 O         146.0726  209.4819   45.5511 O.3    1196      M_A    0.0000
   8376 H         147.9336  208.4592   46.9040 H      1196      M_A    0.0000
   8377 H         148.7963  209.9345   46.4501 H      1196      M_A    0.0000
   8378 H         147.6781  210.1827   44.4023 H      1196      M_A    0.0000
   8379 H         147.2953  208.4728   44.2603 H      1196      M_A    0.0000
   8380 C         145.1287  209.8822   44.5786 C.3    1197      M_A    0.0000
   8381 C         144.0850  210.8372   45.1503 C.3    1197      M_A    0.0000
   8382 O         143.5924  211.7080   44.1321 O.3    1197      M_A    0.0000
   8383 H         145.6571  210.3345   43.7326 H      1197      M_A    0.0000
   8384 H         144.6221  208.9827   44.2104 H      1197      M_A    0.0000
   8385 H         143.2689  210.2701   45.6208 H      1197      M_A    0.0000
   8386 H         144.5180  211.4655   45.9388 H      1197      M_A    0.0000
   8387 C         142.3932  212.3416   44.5289 C.3    1198      M_A    0.0000
   8388 C         141.4533  212.5809   43.3510 C.3    1198      M_A    0.0000
   8389 O         140.1770  211.9928   43.6017 O.3    1198      M_A    0.0000
   8390 H         141.9097  211.7377   45.3042 H      1198      M_A    0.0000
   8391 H         142.6544  213.3076   44.9761 H      1198      M_A    0.0000
   8392 H         141.3645  213.6581   43.1492 H      1198      M_A    0.0000
   8393 H         141.8497  212.1273   42.4341 H      1198      M_A    0.0000
   8394 C         139.7480  211.2034   42.5110 C.3    1199      M_A    0.0000
   8395 C         138.8357  210.0625   42.9516 C.3    1199      M_A    0.0000
   8396 O         137.7436  209.9160   42.0439 O.3    1199      M_A    0.0000
   8397 H         139.2502  211.8471   41.7779 H      1199      M_A    0.0000
   8398 H         140.6378  210.7805   42.0306 H      1199      M_A    0.0000
   8399 H         139.4104  209.1293   43.0396 H      1199      M_A    0.0000
   8400 H         138.4132  210.2590   43.9449 H      1199      M_A    0.0000
   8401 C         136.9316  211.0723   42.0208 C.3    1200      M_A    0.0000
   8402 C         135.4468  210.7331   42.1118 C.3    1200      M_A    0.0000
   8403 O         135.0320  210.6634   43.4759 O.3    1200      M_A    0.0000
   8404 H         137.2355  211.7387   42.8351 H      1200      M_A    0.0000
   8405 H         137.1184  211.5964   41.0765 H      1200      M_A    0.0000
   8406 H         134.8541  211.4699   41.5507 H      1200      M_A    0.0000
   8407 H         135.2382  209.7577   41.6548 H      1200      M_A    0.0000
   8408 C         133.9168  211.4962   43.7206 C.3    1201      M_A    0.0000
   8409 C         132.6173  210.7023   43.8158 C.3    1201      M_A    0.0000
   8410 O         131.5791  211.5068   44.3752 O.3    1201      M_A    0.0000
   8411 H         134.0953  212.0732   44.6342 H      1201      M_A    0.0000
   8412 H         133.8381  212.2068   42.8899 H      1201      M_A    0.0000
   8413 H         132.3348  210.3167   42.8257 H      1201      M_A    0.0000
   8414 H         132.7393  209.8258   44.4645 H      1201      M_A    0.0000
   8415 C         130.6966  211.9792   43.3778 C.3    1202      M_A    0.0000
   8416 C         129.9434  213.2293   43.8228 C.3    1202      M_A    0.0000
   8417 O         129.8206  214.1516   42.7401 O.3    1202      M_A    0.0000
   8418 H         131.2625  212.1648   42.4586 H      1202      M_A    0.0000
   8419 H         129.9715  211.1851   43.1658 H      1202      M_A    0.0000
   8420 H         128.9588  212.9550   44.2281 H      1202      M_A    0.0000
   8421 H         130.4778  213.7422   44.6322 H      1202      M_A    0.0000
   8422 C         129.3193  215.3984   43.1771 C.3    1203      M_A    0.0000
   8423 C         128.4854  216.0904   42.1029 C.3    1203      M_A    0.0000
   8424 O         127.2031  216.4483   42.6181 O.3    1203      M_A    0.0000
   8425 H         128.7382  215.2487   44.0933 H      1203      M_A    0.0000
   8426 H         130.1746  216.0364   43.4277 H      1203      M_A    0.0000
   8427 H         129.0200  216.9693   41.7150 H      1203      M_A    0.0000
   8428 H         128.3211  215.4263   41.2451 H      1203      M_A    0.0000
   8429 C         126.2016  216.3515   41.6258 C.3    1204      M_A    0.0000
   8430 C         125.1153  217.4085   41.8014 C.3    1204      M_A    0.0000
   8431 O         125.0819  218.2840   40.6743 O.3    1204      M_A    0.0000
   8432 H         126.6690  216.4254   40.6380 H      1204      M_A    0.0000
   8433 H         125.7455  215.3580   41.7031 H      1204      M_A    0.0000
   8434 H         124.1400  216.9271   41.9628 H      1204      M_A    0.0000
   8435 H         125.3060  218.0236   42.6897 H      1204      M_A    0.0000
   8436 C         124.4031  219.4866   40.9736 C.3    1205      M_A    0.0000
   8437 C         123.1091  219.6289   40.1776 C.3    1205      M_A    0.0000
   8438 O         122.2197  220.5376   40.8265 O.3    1205      M_A    0.0000
   8439 H         124.2112  219.5302   42.0510 H      1205      M_A    0.0000
   8440 H         125.0680  220.3206   40.7213 H      1205      M_A    0.0000
   8441 H         123.3294  219.9505   39.1495 H      1205      M_A    0.0000
   8442 H         122.5913  218.6652   40.0947 H      1205      M_A    0.0000
   8443 C         121.1919  220.9657   39.9562 C.3    1206      M_A    0.0000
   8444 C         120.1318  221.7894   40.6811 C.3    1206      M_A    0.0000
   8445 O         119.9400  223.0443   40.0281 O.3    1206      M_A    0.0000
   8446 H         121.6358  221.5315   39.1302 H      1206      M_A    0.0000
   8447 H         120.7180  220.0740   39.5301 H      1206      M_A    0.0000
   8448 H         119.1908  221.2244   40.7459 H      1206      M_A    0.0000
   8449 H         120.4365  221.9998   41.7140 H      1206      M_A    0.0000
   8450 C         118.7394  223.6644   40.4416 C.3    1207      M_A    0.0000
   8451 C         118.7618  224.0281   41.9233 C.3    1207      M_A    0.0000
   8452 O         117.8460  225.0898   42.1918 O.3    1207      M_A    0.0000
   8453 H         118.5614  224.5485   39.8201 H      1207      M_A    0.0000
   8454 H         117.9177  222.9617   40.2614 H      1207      M_A    0.0000
   8455 H         118.5376  223.1423   42.5349 H      1207      M_A    0.0000
   8456 H         119.7588  224.3691   42.2287 H      1207      M_A    0.0000
   8457 C         116.5061  224.6694   42.0342 C.3    1208      M_A    0.0000
   8458 C         115.6673  225.6963   41.2792 C.3    1208      M_A    0.0000
   8459 O         114.5629  225.0630   40.6334 O.3    1208      M_A    0.0000
   8460 H         116.4934  223.6988   41.5270 H      1208      M_A    0.0000
   8461 H         116.0779  224.5271   43.0330 H      1208      M_A    0.0000
   8462 H         115.3299  226.4879   41.9637 H      1208      M_A    0.0000
   8463 H         116.2612  226.1935   40.5022 H      1208      M_A    0.0000
   8464 C         113.5299  224.7637   41.5500 C.3    1209      M_A    0.0000
   8465 C         112.2096  224.4601   40.8481 C.3    1209      M_A    0.0000
   8466 O         111.7346  223.1646   41.2139 O.3    1209      M_A    0.0000
   8467 H         113.8439  223.9255   42.1812 H      1209      M_A    0.0000
   8468 H         113.3935  225.6353   42.2004 H      1209      M_A    0.0000
   8469 H         111.4684  225.2383   41.0808 H      1209      M_A    0.0000
   8470 H         112.3334  224.4689   39.7580 H      1209      M_A    0.0000
   8471 C         110.3701  223.0018   40.8841 C.3    1210      M_A    0.0000
   8472 C         110.1305  223.0759   39.3791 C.3    1210      M_A    0.0000
   8473 O         109.4863  221.8891   38.9159 O.3    1210      M_A    0.0000
   8474 H         110.0142  222.0510   41.2948 H      1210      M_A    0.0000
   8475 H         109.8072  223.8053   41.3727 H      1210      M_A    0.0000
   8476 H         109.5433  223.9720   39.1319 H      1210      M_A    0.0000
   8477 H         111.0785  223.1689   38.8347 H      1210      M_A    0.0000
   8478 C         109.3986  221.8650   37.5057 C.3    1211      M_A    0.0000
   8479 C         107.9576  221.7321   37.0223 C.3    1211      M_A    0.0000
   8480 O         107.7403  222.5430   35.8676 O.3    1211      M_A    0.0000
   8481 H         109.8691  222.7682   37.1029 H      1211      M_A    0.0000
   8482 H         109.9738  221.0036   37.1470 H      1211      M_A    0.0000
   8483 H         107.7206  220.6776   36.8206 H      1211      M_A    0.0000
   8484 H         107.2523  222.0642   37.7943 H      1211      M_A    0.0000
   8485 C         106.3625  222.7563   35.6372 C.3    1212      M_A    0.0000
   8486 C         106.0643  224.1970   35.2326 C.3    1212      M_A    0.0000
   8487 O         104.8641  224.2624   34.4625 O.3    1212      M_A    0.0000
   8488 H         106.0143  222.0514   34.8747 H      1212      M_A    0.0000
   8489 H         105.8266  222.5309   36.5664 H      1212      M_A    0.0000
   8490 H         106.0024  224.8367   36.1247 H      1212      M_A    0.0000
   8491 H         106.8734  224.6068   34.6152 H      1212      M_A    0.0000
   8492 C         104.2147  225.5074   34.6215 C.3    1213      M_A    0.0000
   8493 C         102.7228  225.4202   34.3139 C.3    1213      M_A    0.0000
   8494 O         101.9644  226.0934   35.3187 O.3    1213      M_A    0.0000
   8495 H         104.3878  225.8733   35.6391 H      1213      M_A    0.0000
   8496 H         104.6783  226.2200   33.9297 H      1213      M_A    0.0000
   8497 H         102.5166  225.8309   33.3150 H      1213      M_A    0.0000
   8498 H         102.3866  224.3760   34.2930 H      1213      M_A    0.0000
   8499 C         100.6975  225.4940   35.4988 C.3    1214      M_A    0.0000
   8500 C          99.7105  226.4332   36.1858 C.3    1214      M_A    0.0000
   8501 O          98.5184  226.5604   35.4107 O.3    1214      M_A    0.0000
   8502 H         100.3171  225.1633   34.5265 H      1214      M_A    0.0000
   8503 H         100.8319  224.6030   36.1227 H      1214      M_A    0.0000
   8504 H          99.4905  226.0754   37.2019 H      1214      M_A    0.0000
   8505 H         100.1377  227.4375   36.2985 H      1214      M_A    0.0000
   8506 C          97.7089  227.6207   35.8771 C.3    1215      M_A    0.0000
   8507 C          96.2312  227.3909   35.5743 C.3    1215      M_A    0.0000
   8508 O          95.4163  227.9528   36.6029 O.3    1215      M_A    0.0000
   8509 H          97.8765  227.7523   36.9514 H      1215      M_A    0.0000
   8510 H          98.0349  228.5392   35.3758 H      1215      M_A    0.0000
   8511 H          95.9763  227.8080   34.5895 H      1215      M_A    0.0000
   8512 H          96.0030  226.3189   35.5233 H      1215      M_A    0.0000
   8513 C          94.0720  228.0799   36.1862 C.3    1216      M_A    0.0000
   8514 C          93.2177  228.8105   37.2181 C.3    1216      M_A    0.0000
   8515 O          92.2263  229.6089   36.5720 O.3    1216      M_A    0.0000
   8516 H          94.0448  228.5905   35.2177 H      1216      M_A    0.0000
   8517 H          93.6675  227.0717   36.0409 H      1216      M_A    0.0000
   8518 H          92.7611  228.0897   37.9116 H      1216      M_A    0.0000
   8519 H          93.8316  229.4818   37.8315 H      1216      M_A    0.0000
   8520 C          90.9351  229.0561   36.7275 C.3    1217      M_A    0.0000
   8521 C          89.8803  230.1265   36.9917 C.3    1217      M_A    0.0000
   8522 O          88.8102  230.0170   36.0533 O.3    1217      M_A    0.0000
   8523 H          90.6880  228.4691   35.8364 H      1217      M_A    0.0000
   8524 H          90.9635  228.3681   37.5802 H      1217      M_A    0.0000
   8525 H          89.5145  230.0517   38.0259 H      1217      M_A    0.0000
   8526 H          90.3068  231.1320   36.8878 H      1217      M_A    0.0000
   8527 C          88.0515  231.2077   35.9927 C.3    1218      M_A    0.0000
   8528 C          86.5512  230.9316   35.9620 C.3    1218      M_A    0.0000
   8529 O          85.8707  231.7589   36.9055 O.3    1218      M_A    0.0000
   8530 H          88.3188  231.8453   36.8422 H      1218      M_A    0.0000
   8531 H          88.3329  231.7403   35.0771 H      1218      M_A    0.0000
   8532 H          86.1590  231.0785   34.9453 H      1218      M_A    0.0000
   8533 H          86.3385  229.8882   36.2264 H      1218      M_A    0.0000
   8534 C          84.5107  231.3944   37.0268 C.3    1219      M_A    0.0000
   8535 C          83.5823  232.6017   36.9344 C.3    1219      M_A    0.0000
   8536 O          82.2943  232.2076   36.4615 O.3    1219      M_A    0.0000
   8537 H          84.2702  230.6511   36.2592 H      1219      M_A    0.0000
   8538 H          84.3756  230.9172   38.0041 H      1219      M_A    0.0000
   8539 H          83.5136  233.1032   37.9105 H      1219      M_A    0.0000
   8540 H          83.9762  233.3470   36.2322 H      1219      M_A    0.0000
   8541 C          82.0320  230.8488   36.7471 C.3    1220      M_A    0.0000
   8542 C          80.5567  230.5993   37.0461 C.3    1220      M_A    0.0000
   8543 O          80.0695  229.4988   36.2783 O.3    1220      M_A    0.0000
   8544 H          82.3746  230.2345   35.9076 H      1220      M_A    0.0000
   8545 H          82.6241  230.5688   37.6259 H      1220      M_A    0.0000
   8546 H          80.4108  230.4314   38.1229 H      1220      M_A    0.0000
   8547 H          79.9498  231.4756   36.7859 H      1220      M_A    0.0000
   8548 C          80.7831  228.3130   36.5638 C.3    1221      M_A    0.0000
   8549 C          79.8880  227.0783   36.5145 C.3    1221      M_A    0.0000
   8550 O          80.0865  226.3645   35.2943 O.3    1221      M_A    0.0000
   8551 H          81.6204  228.2224   35.8635 H      1221      M_A    0.0000
   8552 H          81.2029  228.4066   37.5719 H      1221      M_A    0.0000
   8553 H          80.0768  226.4376   37.3879 H      1221      M_A    0.0000
   8554 H          78.8285  227.3594   36.5620 H      1221      M_A    0.0000
   8555 C          79.5243  225.0695   35.3553 C.3    1222      M_A    0.0000
   8556 C          78.1091  225.0306   34.7860 C.3    1222      M_A    0.0000
   8557 O          77.8984  223.8253   34.0506 O.3    1222      M_A    0.0000
   8558 H          80.1816  224.3694   34.8286 H      1222      M_A    0.0000
   8559 H          79.4915  224.7656   36.4078 H      1222      M_A    0.0000
   8560 H          77.3718  225.1399   35.5944 H      1222      M_A    0.0000
   8561 H          77.9393  225.8688   34.0987 H      1222      M_A    0.0000
   8562 C          76.6865  223.8672   33.3253 C.3    1223      M_A    0.0000
   8563 C          76.3931  222.5459   32.6207 C.3    1223      M_A    0.0000
   8564 O          76.0077  221.5490   33.5669 O.3    1223      M_A    0.0000
   8565 H          75.8727  224.1421   34.0047 H      1223      M_A    0.0000
   8566 H          76.7715  224.6592   32.5724 H      1223      M_A    0.0000
   8567 H          75.6192  222.6889   31.8529 H      1223      M_A    0.0000
   8568 H          77.2825  222.1747   32.0963 H      1223      M_A    0.0000
   8569 C          75.3902  220.4466   32.9342 C.3    1224      M_A    0.0000
   8570 C          73.9546  220.2422   33.4091 C.3    1224      M_A    0.0000
   8571 O          73.2700  219.3270   32.5537 O.3    1224      M_A    0.0000
   8572 H          75.4311  220.5884   31.8490 H      1224      M_A    0.0000
   8573 H          75.9738  219.5503   33.1735 H      1224      M_A    0.0000
   8574 H          73.9457  219.8969   34.4530 H      1224      M_A    0.0000
   8575 H          73.3973  221.1871   33.3925 H      1224      M_A    0.0000
   8576 C          72.8468  219.9530   31.3596 C.3    1225      M_A    0.0000
   8577 C          72.8137  218.9822   30.1829 C.3    1225      M_A    0.0000
   8578 O          71.9879  217.8576   30.4850 O.3    1225      M_A    0.0000
   8579 H          71.8646  220.4088   31.5238 H      1225      M_A    0.0000
   8580 H          73.5531  220.7601   31.1336 H      1225      M_A    0.0000
   8581 H          72.4701  219.4981   29.2748 H      1225      M_A    0.0000
   8582 H          73.8182  218.6016   29.9597 H      1225      M_A    0.0000
   8583 C          70.6598  218.0584   30.0462 C.3    1226      M_A    0.0000
   8584 C          69.7187  218.3945   31.1992 C.3    1226      M_A    0.0000
   8585 O          68.9888  219.5887   30.9177 O.3    1226      M_A    0.0000
   8586 H          70.6501  218.8463   29.2855 H      1226      M_A    0.0000
   8587 H          70.3190  217.1326   29.5687 H      1226      M_A    0.0000
   8588 H          69.0429  217.5498   31.3960 H      1226      M_A    0.0000
   8589 H          70.2793  218.5632   32.1271 H      1226      M_A    0.0000
   8590 C          68.2495  220.0201   32.0421 C.3    1227      M_A    0.0000
   8591 C          69.1516  220.5429   33.1562 C.3    1227      M_A    0.0000
   8592 O          69.5559  221.8848   32.8845 O.3    1227      M_A    0.0000
   8593 H          67.5300  220.7827   31.7255 H      1227      M_A    0.0000
   8594 H          67.6798  219.1634   32.4198 H      1227      M_A    0.0000
   8595 H          68.6390  220.4683   34.1260 H      1227      M_A    0.0000
   8596 H          70.0619  219.9364   33.2413 H      1227      M_A    0.0000
   8597 C          68.4552  222.6932   32.5215 C.3    1228      M_A    0.0000
   8598 C          68.7196  224.1734   32.7807 C.3    1228      M_A    0.0000
   8599 O          68.5870  224.9243   31.5739 O.3    1228      M_A    0.0000
   8600 H          68.2117  222.5135   31.4689 H      1228      M_A    0.0000
   8601 H          67.5930  222.3770   33.1197 H      1228      M_A    0.0000
   8602 H          68.0428  224.5487   33.5617 H      1228      M_A    0.0000
   8603 H          69.7390  224.3304   33.1549 H      1228      M_A    0.0000
   8604 C          67.2373  225.0105   31.1640 C.3    1229      M_A    0.0000
   8605 C          67.0396  224.5209   29.7324 C.3    1229      M_A    0.0000
   8606 O          66.2284  223.3465   29.7126 O.3    1229      M_A    0.0000
   8607 H          66.6142  224.4447   31.8649 H      1229      M_A    0.0000
   8608 H          66.9333  226.0617   31.2244 H      1229      M_A    0.0000
   8609 H          66.6028  225.3192   29.1153 H      1229      M_A    0.0000
   8610 H          68.0005  224.2643   29.2691 H      1229      M_A    0.0000
   8611 C          64.9158  223.6319   29.2737 C.3    1230      M_A    0.0000
   8612 C          63.9693  223.9114   30.4373 C.3    1230      M_A    0.0000
   8613 O          63.2190  225.1019   30.1974 O.3    1230      M_A    0.0000
   8614 H          64.9475  224.4774   28.5781 H      1230      M_A    0.0000
   8615 H          64.5488  222.7604   28.7195 H      1230      M_A    0.0000
   8616 H          63.3081  223.0488   30.6043 H      1230      M_A    0.0000
   8617 H          64.5271  224.0571   31.3708 H      1230      M_A    0.0000
   8618 C          61.8771  224.9610   30.6174 C.3    1231      M_A    0.0000
   8619 C          61.0706  226.2381   30.4006 C.3    1231      M_A    0.0000
   8620 O          59.7547  225.9273   29.9427 O.3    1231      M_A    0.0000
   8621 H          61.4249  224.1138   30.0908 H      1231      M_A    0.0000
   8622 H          61.8821  224.7221   31.6870 H      1231      M_A    0.0000
   8623 H          61.0423  226.8307   31.3263 H      1231      M_A    0.0000
   8624 H          61.5408  226.8752   29.6412 H      1231      M_A    0.0000
   8625 C          59.4071  226.6950   28.8084 C.3    1232      M_A    0.0000
   8626 C          57.9899  226.3987   28.3269 C.3    1232      M_A    0.0000
   8627 O          57.0393  226.7167   29.3433 O.3    1232      M_A    0.0000
   8628 H          59.5303  227.7574   29.0444 H      1232      M_A    0.0000
   8629 H          60.1126  226.4497   28.0063 H      1232      M_A    0.0000
   8630 H          57.7817  226.9494   27.3983 H      1232      M_A    0.0000
   8631 H          57.8711  225.3346   28.0873 H      1232      M_A    0.0000
   8632 C          55.8613  227.2716   28.7944 C.3    1233      M_A    0.0000
   8633 C          54.6337  226.9744   29.6504 C.3    1233      M_A    0.0000
   8634 O          54.4917  227.9540   30.6790 O.3    1233      M_A    0.0000
   8635 H          56.0011  228.3501   28.6647 H      1233      M_A    0.0000
   8636 H          55.7145  226.8345   27.8001 H      1233      M_A    0.0000
   8637 H          53.7345  226.9236   29.0197 H      1233      M_A    0.0000
   8638 H          54.7231  225.9960   30.1387 H      1233      M_A    0.0000
   8639 C          53.6652  229.0228   30.2647 C.3    1234      M_A    0.0000
   8640 C          52.2119  228.5913   30.0923 C.3    1234      M_A    0.0000
   8641 O          51.4485  228.9300   31.2500 O.3    1234      M_A    0.0000
   8642 H          53.7513  229.8418   30.9868 H      1234      M_A    0.0000
   8643 H          54.0432  229.3879   29.3029 H      1234      M_A    0.0000
   8644 H          51.7862  229.0452   29.1858 H      1234      M_A    0.0000
   8645 H          52.1384  227.5050   29.9565 H      1234      M_A    0.0000
   8646 C          50.0609  228.8802   30.9874 C.3    1235      M_A    0.0000
   8647 C          49.6591  227.5983   30.2638 C.3    1235      M_A    0.0000
   8648 O          48.2979  227.2714   30.5433 O.3    1235      M_A    0.0000
   8649 H          49.5145  228.9897   31.9302 H      1235      M_A    0.0000
   8650 H          49.8065  229.7387   30.3553 H      1235      M_A    0.0000
   8651 H          49.8314  227.7027   29.1829 H      1235      M_A    0.0000
   8652 H          50.2746  226.7520   30.5935 H      1235      M_A    0.0000
   8653 C          47.6417  226.7661   29.3983 C.3    1236      M_A    0.0000
   8654 C          48.4517  225.6727   28.7081 C.3    1236      M_A    0.0000
   8655 O          47.6278  224.9325   27.8075 O.3    1236      M_A    0.0000
   8656 H          46.6501  226.4012   29.6867 H      1236      M_A    0.0000
   8657 H          47.4984  227.5969   28.6979 H      1236      M_A    0.0000
   8658 H          49.3169  226.1111   28.1901 H      1236      M_A    0.0000
   8659 H          48.8578  224.9635   29.4402 H      1236      M_A    0.0000
   8660 C          47.7987  225.3673   26.4739 C.3    1237      M_A    0.0000
   8661 C          49.2626  225.6423   26.1428 C.3    1237      M_A    0.0000
   8662 O          49.6770  224.8627   25.0211 O.3    1237      M_A    0.0000
   8663 H          47.3742  224.6185   25.7966 H      1237      M_A    0.0000
   8664 H          47.2261  226.2930   26.3452 H      1237      M_A    0.0000
   8665 H          49.4155  226.7161   25.9619 H      1237      M_A    0.0000
   8666 H          49.9124  225.3763   26.9858 H      1237      M_A    0.0000
   8667 C          49.3887  225.5165   23.8019 C.3    1238      M_A    0.0000
   8668 C          50.5533  226.3783   23.3232 C.3    1238      M_A    0.0000
   8669 O          51.5938  225.5608   22.7876 O.3    1238      M_A    0.0000
   8670 H          49.1161  224.7677   23.0506 H      1238      M_A    0.0000
   8671 H          48.5150  226.1585   23.9622 H      1238      M_A    0.0000
   8672 H          50.2027  227.1140   22.5850 H      1238      M_A    0.0000
   8673 H          50.9822  226.9545   24.1525 H      1238      M_A    0.0000
   8674 C          51.0975  224.6624   21.8162 C.3    1239      M_A    0.0000
   8675 C          52.0559  223.5021   21.5646 C.3    1239      M_A    0.0000
   8676 O          51.9883  222.5566   22.6320 O.3    1239      M_A    0.0000
   8677 H          50.1136  224.3008   22.1335 H      1239      M_A    0.0000
   8678 H          50.9608  225.2184   20.8816 H      1239      M_A    0.0000
   8679 H          51.8336  223.0293   20.5971 H      1239      M_A    0.0000
   8680 H          53.0928  223.8554   21.5038 H      1239      M_A    0.0000
   8681 C          51.8471  223.1983   23.8831 C.3    1240      M_A    0.0000
   8682 C          53.0596  222.9763   24.7824 C.3    1240      M_A    0.0000
   8683 O          52.7145  222.1472   25.8921 O.3    1240      M_A    0.0000
   8684 H          51.6670  224.2661   23.7187 H      1240      M_A    0.0000
   8685 H          50.9597  222.7846   24.3758 H      1240      M_A    0.0000
   8686 H          53.8879  222.5442   24.2027 H      1240      M_A    0.0000
   8687 H          53.4289  223.9276   25.1853 H      1240      M_A    0.0000
   8688 C          53.1991  220.8304   25.7243 C.3    1241      M_A    0.0000
   8689 C          54.5121  220.6028   26.4675 C.3    1241      M_A    0.0000
   8690 O          54.3733  219.5449   27.4160 O.3    1241      M_A    0.0000
   8691 H          52.4309  220.1224   26.0530 H      1241      M_A    0.0000
   8692 H          53.3648  220.6662   24.6534 H      1241      M_A    0.0000
   8693 H          55.3216  220.3956   25.7530 H      1241      M_A    0.0000
   8694 H          54.8115  221.5022   27.0200 H      1241      M_A    0.0000
   8695 C          55.2884  218.4986   27.1613 C.3    1242      M_A    0.0000
   8696 C          56.6102  218.7004   27.8963 C.3    1242      M_A    0.0000
   8697 O          57.1844  217.4417   28.2482 O.3    1242      M_A    0.0000
   8698 H          54.8255  217.5445   27.4351 H      1242      M_A    0.0000
   8699 H          55.4823  218.4756   26.0828 H      1242      M_A    0.0000
   8700 H          57.2995  219.2963   27.2808 H      1242      M_A    0.0000
   8701 H          56.4607  219.2645   28.8253 H      1242      M_A    0.0000
   8702 C          56.4467  216.8047   29.2713 C.3    1243      M_A    0.0000
   8703 C          56.7866  215.3216   29.3860 C.3    1243      M_A    0.0000
   8704 O          57.9814  215.1393   30.1457 O.3    1243      M_A    0.0000
   8705 H          56.6255  217.3255   30.2180 H      1243      M_A    0.0000
   8706 H          55.3819  216.9069   29.0327 H      1243      M_A    0.0000
   8707 H          55.9435  214.7721   29.8288 H      1243      M_A    0.0000
   8708 H          56.9562  214.8801   28.3961 H      1243      M_A    0.0000
   8709 C          58.9258  216.1553   29.8762 C.3    1244      M_A    0.0000
   8710 C          60.1681  215.6133   29.1754 C.3    1244      M_A    0.0000
   8711 O          59.8487  215.1837   27.8520 O.3    1244      M_A    0.0000
   8712 H          58.4466  216.9398   29.2808 H      1244      M_A    0.0000
   8713 H          59.2240  216.6005   30.8323 H      1244      M_A    0.0000
   8714 H          60.9620  216.3739   29.1682 H      1244      M_A    0.0000
   8715 H          60.5756  214.7477   29.7124 H      1244      M_A    0.0000
   8716 C          59.8148  216.2705   26.9494 C.3    1245      M_A    0.0000
   8717 C          61.1970  216.8787   26.7310 C.3    1245      M_A    0.0000
   8718 O          61.9974  216.0227   25.9158 O.3    1245      M_A    0.0000
   8719 H          59.3763  215.9357   26.0033 H      1245      M_A    0.0000
   8720 H          59.1527  217.0365   27.3690 H      1245      M_A    0.0000
   8721 H          61.1049  217.8810   26.2883 H      1245      M_A    0.0000
   8722 H          61.7232  217.0103   27.6847 H      1245      M_A    0.0000
   8723 C          63.1931  215.6532   26.5721 C.3    1246      M_A    0.0000
   8724 C          63.2680  214.1504   26.8256 C.3    1246      M_A    0.0000
   8725 O          63.4079  213.4415   25.5944 O.3    1246      M_A    0.0000
   8726 H          64.0472  215.9971   25.9790 H      1246      M_A    0.0000
   8727 H          63.2252  216.1771   27.5342 H      1246      M_A    0.0000
   8728 H          64.0943  213.9225   27.5143 H      1246      M_A    0.0000
   8729 H          62.3534  213.7881   27.3112 H      1246      M_A    0.0000
   8730 C          64.7499  213.4331   25.1520 C.3    1247      M_A    0.0000
   8731 C          65.6505  212.6072   26.0659 C.3    1247      M_A    0.0000
   8732 O          65.9703  211.3567   25.4562 O.3    1247      M_A    0.0000
   8733 H          64.7844  213.0616   24.1223 H      1247      M_A    0.0000
   8734 H          65.1083  214.4688   25.1429 H      1247      M_A    0.0000
   8735 H          66.5588  213.1739   26.3164 H      1247      M_A    0.0000
   8736 H          65.1504  212.3901   27.0180 H      1247      M_A    0.0000
   8737 C          67.2943  210.9609   25.7515 C.3    1248      M_A    0.0000
   8738 C          67.6731  211.2583   27.1993 C.3    1248      M_A    0.0000
   8739 O          68.0177  210.0540   27.8839 O.3    1248      M_A    0.0000
   8740 H          67.4081  209.8956   25.5239 H      1248      M_A    0.0000
   8741 H          67.9677  211.5153   25.0878 H      1248      M_A    0.0000
   8742 H          68.4953  211.9875   27.2343 H      1248      M_A    0.0000
   8743 H          66.8337  211.7143   27.7389 H      1248      M_A    0.0000
   8744 C          69.3506  209.6695   27.6150 C.3    1249      M_A    0.0000
   8745 C          70.3367  210.2870   28.6022 C.3    1249      M_A    0.0000
   8746 O          70.4818  209.4536   29.7521 O.3    1249      M_A    0.0000
   8747 H          69.4157  208.5762   27.6229 H      1249      M_A    0.0000
   8748 H          69.6018  210.0091   26.6037 H      1249      M_A    0.0000
   8749 H          71.3047  210.4634   28.1116 H      1249      M_A    0.0000
   8750 H          69.9839  211.2664   28.9487 H      1249      M_A    0.0000
   8751 C          71.1305  208.2395   29.4325 C.3    1250      M_A    0.0000
   8752 C          72.6472  208.3961   29.3775 C.3    1250      M_A    0.0000
   8753 O          73.2901  207.1819   29.7648 O.3    1250      M_A    0.0000
   8754 H          70.8381  207.4756   30.1608 H      1250      M_A    0.0000
   8755 H          70.7717  207.9145   28.4491 H      1250      M_A    0.0000
   8756 H          72.9600  208.7110   28.3715 H      1250      M_A    0.0000
   8757 H          72.9860  209.1811   30.0651 H      1250      M_A    0.0000
   8758 C          74.3959  206.8940   28.9333 C.3    1251      M_A    0.0000
   8759 C          75.7091  206.8761   29.7099 C.3    1251      M_A    0.0000
   8760 O          75.8304  205.6676   30.4601 O.3    1251      M_A    0.0000
   8761 H          74.2230  205.9384   28.4269 H      1251      M_A    0.0000
   8762 H          74.4499  207.6721   28.1632 H      1251      M_A    0.0000
   8763 H          76.5578  207.0076   29.0234 H      1251      M_A    0.0000
   8764 H          75.7560  207.7103   30.4211 H      1251      M_A    0.0000
   8765 C          76.6209  204.7139   29.7800 C.3    1252      M_A    0.0000
   8766 C          78.1135  204.9901   29.9347 C.3    1252      M_A    0.0000
   8767 O          78.8537  203.7697   29.9082 O.3    1252      M_A    0.0000
   8768 H          76.3644  203.7129   30.1430 H      1252      M_A    0.0000
   8769 H          76.3607  204.7575   28.7162 H      1252      M_A    0.0000
   8770 H          78.4547  205.6818   29.1511 H      1252      M_A    0.0000
   8771 H          78.3246  205.4815   30.8927 H      1252      M_A    0.0000
   8772 C          80.1940  203.9688   30.3094 C.3    1253      M_A    0.0000
   8773 C          80.7050  202.8316   31.1889 C.3    1253      M_A    0.0000
   8774 O          80.8751  201.6413   30.4193 O.3    1253      M_A    0.0000
   8775 H          80.8192  204.0912   29.4185 H      1253      M_A    0.0000
   8776 H          80.2401  204.9048   30.8778 H      1253      M_A    0.0000
   8777 H          81.6423  203.1256   31.6829 H      1253      M_A    0.0000
   8778 H          79.9918  202.6049   31.9912 H      1253      M_A    0.0000
   8779 C          80.6781  200.4841   31.2061 C.3    1254      M_A    0.0000
   8780 C          81.7916  199.4597   31.0093 C.3    1254      M_A    0.0000
   8781 O          82.8564  199.6947   31.9305 O.3    1254      M_A    0.0000
   8782 H          80.5921  200.7775   32.2578 H      1254      M_A    0.0000
   8783 H          79.7245  200.0329   30.9088 H      1254      M_A    0.0000
   8784 H          81.3920  198.4405   31.1116 H      1254      M_A    0.0000
   8785 H          82.2116  199.5258   29.9979 H      1254      M_A    0.0000
   8786 C          83.5055  198.4917   32.2887 C.3    1255      M_A    0.0000
   8787 C          84.8513  198.3345   31.5872 C.3    1255      M_A    0.0000
   8788 O          85.9224  198.5021   32.5159 O.3    1255      M_A    0.0000
   8789 H          83.6209  198.4584   33.3774 H      1255      M_A    0.0000
   8790 H          82.8550  197.6586   31.9988 H      1255      M_A    0.0000
   8791 H          84.9060  197.3575   31.0857 H      1255      M_A    0.0000
   8792 H          84.9756  199.0910   30.8023 H      1255      M_A    0.0000
   8793 C          86.7554  197.3613   32.5561 C.3    1256      M_A    0.0000
   8794 C          88.2115  197.7231   32.8336 C.3    1256      M_A    0.0000
   8795 O          89.0685  196.6253   32.5202 O.3    1256      M_A    0.0000
   8796 H          86.3710  196.6644   33.3084 H      1256      M_A    0.0000
   8797 H          86.6932  196.8641   31.5813 H      1256      M_A    0.0000
   8798 H          88.4929  198.6238   32.2692 H      1256      M_A    0.0000
   8799 H          88.3609  197.9644   33.8934 H      1256      M_A    0.0000
   8800 C          88.5621  195.8653   31.4418 C.3    1257      M_A    0.0000
   8801 C          88.8754  196.5042   30.0921 C.3    1257      M_A    0.0000
   8802 O          89.8323  195.7217   29.3780 O.3    1257      M_A    0.0000
   8803 H          88.9650  194.8485   31.5009 H      1257      M_A    0.0000
   8804 H          87.4744  195.7980   31.5584 H      1257      M_A    0.0000
   8805 H          87.9515  196.6347   29.5104 H      1257      M_A    0.0000
   8806 H          89.3020  197.5067   30.2219 H      1257      M_A    0.0000
   8807 C          90.3483  194.6781   30.1791 C.3    1258      M_A    0.0000
   8808 C          90.5055  193.3777   29.3965 C.3    1258      M_A    0.0000
   8809 O          91.0041  192.3416   30.2425 O.3    1258      M_A    0.0000
   8810 H          91.3028  194.9975   30.6107 H      1258      M_A    0.0000
   8811 H          89.6494  194.5115   31.0068 H      1258      M_A    0.0000
   8812 H          89.5478  193.0929   28.9375 H      1258      M_A    0.0000
   8813 H          91.2184  193.4997   28.5715 H      1258      M_A    0.0000
   8814 C          92.3680  192.5401   30.5545 C.3    1259      M_A    0.0000
   8815 C          92.5910  192.7448   32.0500 C.3    1259      M_A    0.0000
   8816 O          92.9506  191.5131   32.6756 O.3    1259      M_A    0.0000
   8817 H          92.9475  191.6889   30.1813 H      1259      M_A    0.0000
   8818 H          92.7095  193.4337   30.0195 H      1259      M_A    0.0000
   8819 H          93.3560  193.5166   32.2174 H      1259      M_A    0.0000
   8820 H          91.6769  193.1062   32.5373 H      1259      M_A    0.0000
   8821 C          94.2750  191.5498   33.1668 C.3    1260      M_A    0.0000
   8822 C          94.4107  190.8316   34.5062 C.3    1260      M_A    0.0000
   8823 O          95.3054  189.7251   34.3924 O.3    1260      M_A    0.0000
   8824 H          94.9464  191.1179   32.4169 H      1260      M_A    0.0000
   8825 H          94.5568  192.6008   33.2979 H      1260      M_A    0.0000
   8826 H          94.7426  191.5359   35.2825 H      1260      M_A    0.0000
   8827 H          93.4426  190.4382   34.8406 H      1260      M_A    0.0000
   8828 C          95.3125  188.9425   35.5690 C.3    1261      M_A    0.0000
   8829 C          95.9518  187.5753   35.3453 C.3    1261      M_A    0.0000
   8830 O          97.2380  187.5173   35.9618 O.3    1261      M_A    0.0000
   8831 H          95.8275  189.4947   36.3623 H      1261      M_A    0.0000
   8832 H          94.2728  188.8003   35.8854 H      1261      M_A    0.0000
   8833 H          95.2914  186.7812   35.7226 H      1261      M_A    0.0000
   8834 H          96.0912  187.3774   34.2752 H      1261      M_A    0.0000
   8835 C          97.4889  186.2419   36.5163 C.3    1262      M_A    0.0000
   8836 C          98.4713  185.4330   35.6745 C.3    1262      M_A    0.0000
   8837 O          99.4164  184.7661   36.5111 O.3    1262      M_A    0.0000
   8838 H          97.8537  186.3635   37.5417 H      1262      M_A    0.0000
   8839 H          96.5361  185.7024   36.5652 H      1262      M_A    0.0000
   8840 H          97.9281  184.7201   35.0376 H      1262      M_A    0.0000
   8841 H          99.0358  186.0845   34.9957 H      1262      M_A    0.0000
   8842 C          99.4630  183.3807   36.2366 C.3    1263      M_A    0.0000
   8843 C         100.8689  182.8103   36.3986 C.3    1263      M_A    0.0000
   8844 O         100.8774  181.7699   37.3759 O.3    1263      M_A    0.0000
   8845 H          98.7492  182.8634   36.8865 H      1263      M_A    0.0000
   8846 H          99.1369  183.2312   35.2010 H      1263      M_A    0.0000
   8847 H         101.2471  182.4523   35.4302 H      1263      M_A    0.0000
   8848 H         101.5699  183.5839   36.7362 H      1263      M_A    0.0000
   8849 C         101.8129  180.7621   37.0504 C.3    1264      M_A    0.0000
   8850 C         103.2008  181.3338   36.7765 C.3    1264      M_A    0.0000
   8851 O         104.1841  180.6581   37.5604 O.3    1264      M_A    0.0000
   8852 H         101.8416  180.0258   37.8608 H      1264      M_A    0.0000
   8853 H         101.4565  180.2496   36.1495 H      1264      M_A    0.0000
   8854 H         103.4323  181.2707   35.7035 H      1264      M_A    0.0000
   8855 H         103.2458  182.3981   37.0393 H      1264      M_A    0.0000
   8856 C         105.4919  180.9425   37.1069 C.3    1265      M_A    0.0000
   8857 C         106.5587  180.3469   38.0209 C.3    1265      M_A    0.0000
   8858 O         107.2446  179.2823   37.3621 O.3    1265      M_A    0.0000
   8859 H         105.6017  180.5767   36.0805 H      1265      M_A    0.0000
   8860 H         105.6116  182.0318   37.0851 H      1265      M_A    0.0000
   8861 H         107.2573  181.1299   38.3493 H      1265      M_A    0.0000
   8862 H         106.1087  179.9336   38.9322 H      1265      M_A    0.0000
   8863 C         108.3777  178.8647   38.0960 C.3    1266      M_A    0.0000
   8864 C         109.5115  178.4004   37.1865 C.3    1266      M_A    0.0000
   8865 O         110.7761  178.6188   37.8119 O.3    1266      M_A    0.0000
   8866 H         108.7032  179.6829   38.7472 H      1266      M_A    0.0000
   8867 H         108.0743  178.0303   38.7385 H      1266      M_A    0.0000
   8868 H         109.3749  177.3425   36.9196 H      1266      M_A    0.0000
   8869 H         109.5111  178.9589   36.2422 H      1266      M_A    0.0000
   8870 C         111.1376  177.5330   38.6408 C.3    1267      M_A    0.0000
   8871 C         112.5738  177.0786   38.3980 C.3    1267      M_A    0.0000
   8872 O         113.4608  177.7068   39.3235 O.3    1267      M_A    0.0000
   8873 H         110.9842  177.8160   39.6877 H      1267      M_A    0.0000
   8874 H         110.4601  176.7002   38.4200 H      1267      M_A    0.0000
   8875 H         112.6409  175.9829   38.4606 H      1267      M_A    0.0000
   8876 H         112.9061  177.3504   37.3883 H      1267      M_A    0.0000
   8877 C         114.2926  178.6523   38.6823 C.3    1268      M_A    0.0000
   8878 C         115.7513  178.5162   39.1088 C.3    1268      M_A    0.0000
   8879 O         116.4819  177.7457   38.1547 O.3    1268      M_A    0.0000
   8880 H         114.1862  178.5444   37.5976 H      1268      M_A    0.0000
   8881 H         113.9360  179.6528   38.9524 H      1268      M_A    0.0000
   8882 H         116.2002  179.5102   39.2481 H      1268      M_A    0.0000
   8883 H         115.8315  178.0038   40.0756 H      1268      M_A    0.0000
   8884 C         116.8790  178.5321   37.0498 C.3    1269      M_A    0.0000
   8885 C         118.3769  178.4272   36.7792 C.3    1269      M_A    0.0000
   8886 O         118.7032  177.1367   36.2634 O.3    1269      M_A    0.0000
   8887 H         116.2968  178.2341   36.1713 H      1269      M_A    0.0000
   8888 H         116.6313  179.5762   37.2729 H      1269      M_A    0.0000
   8889 H         118.6953  179.2245   36.0922 H      1269      M_A    0.0000
   8890 H         118.9534  178.5674   37.7021 H      1269      M_A    0.0000
   8891 C         119.2213  176.2927   37.2714 C.3    1270      M_A    0.0000
   8892 C         119.0173  174.8163   36.9450 C.3    1270      M_A    0.0000
   8893 O         117.8246  174.3281   37.5591 O.3    1270      M_A    0.0000
   8894 H         120.2821  176.5220   37.4191 H      1270      M_A    0.0000
   8895 H         118.6989  176.5246   38.2066 H      1270      M_A    0.0000
   8896 H         118.9958  174.6678   35.8558 H      1270      M_A    0.0000
   8897 H         119.8518  174.2119   37.3219 H      1270      M_A    0.0000
   8898 C         117.3995  175.1740   38.6082 C.3    1271      M_A    0.0000
   8899 C         117.0055  174.3883   39.8554 C.3    1271      M_A    0.0000
   8900 O         115.6145  174.5520   40.1314 O.3    1271      M_A    0.0000
   8901 H         118.1934  175.8952   38.8297 H      1271      M_A    0.0000
   8902 H         116.5287  175.7379   38.2546 H      1271      M_A    0.0000
   8903 H         117.2668  173.3272   39.7338 H      1271      M_A    0.0000
   8904 H         117.5586  174.7431   40.7339 H      1271      M_A    0.0000
   8905 C         115.2646  173.9871   41.3785 C.3    1272      M_A    0.0000
   8906 C         116.0000  174.6537   42.5374 C.3    1272      M_A    0.0000
   8907 O         115.8206  173.9061   43.7402 O.3    1272      M_A    0.0000
   8908 H         114.1792  174.0531   41.5088 H      1272      M_A    0.0000
   8909 H         115.5314  172.9243   41.3537 H      1272      M_A    0.0000
   8910 H         117.0659  174.7697   42.2939 H      1272      M_A    0.0000
   8911 H         115.6134  175.6645   42.7181 H      1272      M_A    0.0000
   8912 C         116.7614  174.2793   44.7263 C.3    1273      M_A    0.0000
   8913 C         117.6857  173.1255   45.1040 C.3    1273      M_A    0.0000
   8914 O         119.0192  173.3893   44.6683 O.3    1273      M_A    0.0000
   8915 H         117.3326  175.1420   44.3670 H      1273      M_A    0.0000
   8916 H         116.2077  174.5964   45.6175 H      1273      M_A    0.0000
   8917 H         117.6471  172.9478   46.1884 H      1273      M_A    0.0000
   8918 H         117.3628  172.1917   44.6271 H      1273      M_A    0.0000
   8919 C         119.5374  174.5593   45.2678 C.3    1274      M_A    0.0000
   8920 C         119.0728  175.8247   44.5531 C.3    1274      M_A    0.0000
   8921 O         119.9211  176.9250   44.8812 O.3    1274      M_A    0.0000
   8922 H         119.2525  174.5752   46.3252 H      1274      M_A    0.0000
   8923 H         120.6311  174.5064   45.2200 H      1274      M_A    0.0000
   8924 H         119.0384  175.6563   43.4671 H      1274      M_A    0.0000
   8925 H         118.0532  176.0945   44.8554 H      1274      M_A    0.0000
   8926 C         119.7813  177.9809   43.9526 C.3    1275      M_A    0.0000
   8927 C         118.3182  178.3300   43.6962 C.3    1275      M_A    0.0000
   8928 O         118.0820  179.7145   43.9514 O.3    1275      M_A    0.0000
   8929 H         120.3378  178.8517   44.3151 H      1275      M_A    0.0000
   8930 H         120.2405  177.6632   43.0094 H      1275      M_A    0.0000
   8931 H         118.0381  178.0595   42.6679 H      1275      M_A    0.0000
   8932 H         117.6562  177.7565   44.3569 H      1275      M_A    0.0000
   8933 C         117.6588  180.3907   42.7850 C.3    1276      M_A    0.0000
   8934 C         118.0177  181.8733   42.8186 C.3    1276      M_A    0.0000
   8935 O         118.8944  182.2005   41.7406 O.3    1276      M_A    0.0000
   8936 H         118.0940  179.8983   41.9088 H      1276      M_A    0.0000
   8937 H         116.5696  180.2910   42.7141 H      1276      M_A    0.0000
   8938 H         117.1047  182.4855   42.7914 H      1276      M_A    0.0000
   8939 H         118.5339  182.1312   43.7517 H      1276      M_A    0.0000
   8940 C         118.5701  181.4756   40.5718 C.3    1277      M_A    0.0000
   8941 C         119.7453  181.3939   39.6021 C.3    1277      M_A    0.0000
   8942 O         120.0168  182.6758   39.0356 O.3    1277      M_A    0.0000
   8943 H         118.2218  180.4768   40.8558 H      1277      M_A    0.0000
   8944 H         117.7374  181.9887   40.0772 H      1277      M_A    0.0000
   8945 H         120.6303  180.9865   40.1119 H      1277      M_A    0.0000
   8946 H         119.5243  180.7089   38.7741 H      1277      M_A    0.0000
   8947 C         118.8304  183.3151   38.6106 C.3    1278      M_A    0.0000
   8948 C         118.9829  184.8324   38.5582 C.3    1278      M_A    0.0000
   8949 O         117.7053  185.4605   38.4537 O.3    1278      M_A    0.0000
   8950 H         118.5378  182.9133   37.6347 H      1278      M_A    0.0000
   8951 H         118.0375  183.0629   39.3240 H      1278      M_A    0.0000
   8952 H         119.5330  185.1892   39.4408 H      1278      M_A    0.0000
   8953 H         119.5716  185.1378   37.6841 H      1278      M_A    0.0000
   8954 C         117.1551  185.7287   39.7274 C.3    1279      M_A    0.0000
   8955 C         115.8393  184.9894   39.9516 C.3    1279      M_A    0.0000
   8956 O         115.3093  185.2912   41.2423 O.3    1279      M_A    0.0000
   8957 H         117.8905  185.4689   40.4963 H      1279      M_A    0.0000
   8958 H         116.9718  186.8072   39.7950 H      1279      M_A    0.0000
   8959 H         115.1227  185.2404   39.1564 H      1279      M_A    0.0000
   8960 H         115.9861  183.9032   39.9025 H      1279      M_A    0.0000
   8961 C         115.2922  184.1492   42.0744 C.3    1280      M_A    0.0000
   8962 C         116.4512  184.1443   43.0667 C.3    1280      M_A    0.0000
   8963 O         116.1966  185.0528   44.1380 O.3    1280      M_A    0.0000
   8964 H         114.3283  184.0986   42.5921 H      1280      M_A    0.0000
   8965 H         115.3708  183.2638   41.4331 H      1280      M_A    0.0000
   8966 H         116.6270  183.1252   43.4399 H      1280      M_A    0.0000
   8967 H         117.3838  184.4603   42.5827 H      1280      M_A    0.0000
   8968 C         117.3972  185.5759   44.6690 C.3    1281      M_A    0.0000
   8969 C         117.5996  185.1805   46.1288 C.3    1281      M_A    0.0000
   8970 O         118.8031  184.4280   46.2811 O.3    1281      M_A    0.0000
   8971 H         118.2368  185.2434   44.0493 H      1281      M_A    0.0000
   8972 H         117.3477  186.6687   44.6013 H      1281      M_A    0.0000
   8973 H         117.6041  186.0756   46.7673 H      1281      M_A    0.0000
   8974 H         116.7727  184.5529   46.4838 H      1281      M_A    0.0000
   8975 C         118.5834  183.0501   46.0574 C.3    1282      M_A    0.0000
   8976 C         119.8881  182.2874   45.8474 C.3    1282      M_A    0.0000
   8977 O         120.2332  181.5530   47.0219 O.3    1282      M_A    0.0000
   8978 H         118.0154  182.6377   46.8981 H      1282      M_A    0.0000
   8979 H         117.9650  182.9491   45.1582 H      1282      M_A    0.0000
   8980 H         119.8048  181.6265   44.9726 H      1282      M_A    0.0000
   8981 H         120.7157  182.9759   45.6355 H      1282      M_A    0.0000
   8982 C         121.0238  180.4235   46.7120 C.3    1283      M_A    0.0000
   8983 C         122.1570  180.7629   45.7481 C.3    1283      M_A    0.0000
   8984 O         123.3960  180.8676   46.4493 O.3    1283      M_A    0.0000
   8985 H         121.4112  179.9926   47.6413 H      1283      M_A    0.0000
   8986 H         120.3736  179.6748   46.2452 H      1283      M_A    0.0000
   8987 H         122.2126  180.0108   44.9480 H      1283      M_A    0.0000
   8988 H         121.9768  181.7257   45.2539 H      1283      M_A    0.0000
   8989 C         124.4979  180.7607   45.5711 C.3    1284      M_A    0.0000
   8990 C         124.3681  181.6938   44.3708 C.3    1284      M_A    0.0000
   8991 O         124.5466  183.0523   44.7714 O.3    1284      M_A    0.0000
   8992 H         125.4196  180.9595   46.1284 H      1284      M_A    0.0000
   8993 H         124.5440  179.7260   45.2126 H      1284      M_A    0.0000
   8994 H         125.0876  181.4094   43.5895 H      1284      M_A    0.0000
   8995 H         123.3725  181.6132   43.9169 H      1284      M_A    0.0000
   8996 C         124.4846  183.9299   43.6656 C.3    1285      M_A    0.0000
   8997 C         123.1087  183.9264   43.0061 C.3    1285      M_A    0.0000
   8998 O         123.1454  184.6355   41.7677 O.3    1285      M_A    0.0000
   8999 H         124.7636  184.9372   43.9928 H      1285      M_A    0.0000
   9000 H         125.2301  183.6013   42.9323 H      1285      M_A    0.0000
   9001 H         122.7579  182.8938   42.8654 H      1285      M_A    0.0000
   9002 H         122.3658  184.4197   43.6452 H      1285      M_A    0.0000
   9003 C         123.9317  183.9594   40.8077 C.3    1286      M_A    0.0000
   9004 C         123.0781  183.2928   39.7329 C.3    1286      M_A    0.0000
   9005 O         122.8428  184.1935   38.6506 O.3    1286      M_A    0.0000
   9006 H         124.6424  184.6661   40.3661 H      1286      M_A    0.0000
   9007 H         124.5110  183.1887   41.3289 H      1286      M_A    0.0000
   9008 H         123.5597  182.3674   39.3856 H      1286      M_A    0.0000
   9009 H         122.1002  182.9992   40.1344 H      1286      M_A    0.0000
   9010 C         121.9068  183.6659   37.7328 C.3    1287      M_A    0.0000
   9011 C         122.5156  183.4539   36.3498 C.3    1287      M_A    0.0000
   9012 O         122.0099  184.4188   35.4272 O.3    1287      M_A    0.0000
   9013 H         121.5013  182.7308   38.1337 H      1287      M_A    0.0000
   9014 H         121.0779  184.3781   37.6499 H      1287      M_A    0.0000
   9015 H         123.6129  183.4932   36.4081 H      1287      M_A    0.0000
   9016 H         122.2632  182.4608   35.9578 H      1287      M_A    0.0000
   9017 C         122.4153  184.1315   34.1043 C.3    1288      M_A    0.0000
   9018 C         123.3063  185.2270   33.5262 C.3    1288      M_A    0.0000
   9019 O         124.6507  184.7639   33.3998 O.3    1288      M_A    0.0000
   9020 H         122.9219  183.1606   34.0887 H      1288      M_A    0.0000
   9021 H         121.5139  184.0450   33.4869 H      1288      M_A    0.0000
   9022 H         122.9087  185.5690   32.5599 H      1288      M_A    0.0000
   9023 H         123.3222  186.1068   34.1816 H      1288      M_A    0.0000
   9024 C         124.7354  183.3652   33.5827 C.3    1289      M_A    0.0000
   9025 C         123.3598  182.7207   33.7263 C.3    1289      M_A    0.0000
   9026 O         123.1424  181.7682   32.6855 O.3    1289      M_A    0.0000
   9027 H         125.2912  182.9285   32.7463 H      1289      M_A    0.0000
   9028 H         125.3112  183.1792   34.4966 H      1289      M_A    0.0000
   9029 H         123.2590  182.2585   34.7188 H      1289      M_A    0.0000
   9030 H         122.5644  183.4730   33.6545 H      1289      M_A    0.0000
   9031 C         123.6636  180.5001   33.0278 C.3    1290      M_A    0.0000
   9032 C         122.5674  179.4482   33.1702 C.3    1290      M_A    0.0000
   9033 O         122.2168  178.9148   31.8933 O.3    1290      M_A    0.0000
   9034 H         124.4019  180.2023   32.2757 H      1290      M_A    0.0000
   9035 H         124.1872  180.5983   33.9856 H      1290      M_A    0.0000
   9036 H         122.8899  178.6551   33.8601 H      1290      M_A    0.0000
   9037 H         121.6592  179.8841   33.6048 H      1290      M_A    0.0000
   9038 C         122.4278  177.5185   31.8405 C.3    1291      M_A    0.0000
   9039 C         121.5817  176.7707   32.8667 C.3    1291      M_A    0.0000
   9040 O         120.6344  175.9256   32.2139 O.3    1291      M_A    0.0000
   9041 H         122.2220  177.1642   30.8248 H      1291      M_A    0.0000
   9042 H         123.4871  177.3297   32.0490 H      1291      M_A    0.0000
   9043 H         122.2284  176.1967   33.5458 H      1291      M_A    0.0000
   9044 H         121.0184  177.4709   33.4961 H      1291      M_A    0.0000
   9045 C         121.0089  174.5658   32.2998 C.3    1292      M_A    0.0000
   9046 C         121.7923  174.1074   31.0733 C.3    1292      M_A    0.0000
   9047 O         122.7446  173.1066   31.4329 O.3    1292      M_A    0.0000
   9048 H         121.5859  174.4113   33.2178 H      1292      M_A    0.0000
   9049 H         120.0934  173.9684   32.3793 H      1292      M_A    0.0000
   9050 H         121.1036  173.7435   30.2972 H      1292      M_A    0.0000
   9051 H         122.3462  174.9425   30.6266 H      1292      M_A    0.0000
   9052 C         122.3983  172.4764   32.6494 C.3    1293      M_A    0.0000
   9053 C         121.1444  173.0821   33.2731 C.3    1293      M_A    0.0000
   9054 O         121.0749  172.7669   34.6637 O.3    1293      M_A    0.0000
   9055 H         122.2729  171.4029   32.4726 H      1293      M_A    0.0000
   9056 H         123.2363  172.6022   33.3445 H      1293      M_A    0.0000
   9057 H         121.1255  174.1690   33.1081 H      1293      M_A    0.0000
   9058 H         120.2386  172.6828   32.8001 H      1293      M_A    0.0000
   9059 C         121.5548  173.8312   35.4599 C.3    1294      M_A    0.0000
   9060 C         123.0621  174.0206   35.3172 C.3    1294      M_A    0.0000
   9061 O         123.3700  174.6743   34.0861 O.3    1294      M_A    0.0000
   9062 H         121.0146  174.7466   35.1960 H      1294      M_A    0.0000
   9063 H         121.3240  173.6000   36.5061 H      1294      M_A    0.0000
   9064 H         123.4572  174.5805   36.1770 H      1294      M_A    0.0000
   9065 H         123.5807  173.0538   35.3145 H      1294      M_A    0.0000
   9066 C         123.4493  176.0756   34.2502 C.3    1295      M_A    0.0000
   9067 C         124.2999  176.7333   33.1676 C.3    1295      M_A    0.0000
   9068 O         124.4374  178.1316   33.4198 O.3    1295      M_A    0.0000
   9069 H         122.4362  176.4916   34.2642 H      1295      M_A    0.0000
   9070 H         123.9031  176.2753   35.2277 H      1295      M_A    0.0000
   9071 H         125.2805  176.2402   33.1037 H      1295      M_A    0.0000
   9072 H         123.8340  176.6217   32.1805 H      1295      M_A    0.0000
   9073 C         125.6259  178.4147   34.1298 C.3    1296      M_A    0.0000
   9074 C         125.7222  179.8854   34.5248 C.3    1296      M_A    0.0000
   9075 O         126.9475  180.4498   34.0578 O.3    1296      M_A    0.0000
   9076 H         125.6800  177.7648   35.0096 H      1296      M_A    0.0000
   9077 H         126.4735  178.1656   33.4810 H      1296      M_A    0.0000
   9078 H         124.8542  180.4395   34.1393 H      1296      M_A    0.0000
   9079 H         125.7019  180.0011   35.6156 H      1296      M_A    0.0000
   9080 C         126.8603  180.8218   32.6973 C.3    1297      M_A    0.0000
   9081 C         127.6078  179.8513   31.7877 C.3    1297      M_A    0.0000
   9082 O         126.6939  178.9614   31.1467 O.3    1297      M_A    0.0000
   9083 H         125.8049  180.8959   32.4141 H      1297      M_A    0.0000
   9084 H         127.3027  181.8190   32.5916 H      1297      M_A    0.0000
   9085 H         128.2079  180.4062   31.0522 H      1297      M_A    0.0000
   9086 H         128.3138  179.2391   32.3626 H      1297      M_A    0.0000
   9087 C         126.3189  179.4366   29.8698 C.3    1298      M_A    0.0000
   9088 C         124.9948  180.1939   29.9052 C.3    1298      M_A    0.0000
   9089 O         125.1996  181.5405   30.3327 O.3    1298      M_A    0.0000
   9090 H         127.1230  180.0647   29.4719 H      1298      M_A    0.0000
   9091 H         126.2147  178.5712   29.2054 H      1298      M_A    0.0000
   9092 H         124.5099  180.1569   28.9190 H      1298      M_A    0.0000
   9093 H         124.2949  179.7283   30.6103 H      1298      M_A    0.0000
   9094 C         124.0350  182.0777   30.9258 C.3    1299      M_A    0.0000
   9095 C         124.1774  183.5672   31.2243 C.3    1299      M_A    0.0000
   9096 O         124.4052  184.2994   30.0202 O.3    1299      M_A    0.0000
   9097 H         123.1790  181.8861   30.2700 H      1299      M_A    0.0000
   9098 H         123.8583  181.5430   31.8661 H      1299      M_A    0.0000
   9099 H         123.2866  183.9351   31.7536 H      1299      M_A    0.0000
   9100 H         125.0300  183.7546   31.8890 H      1299      M_A    0.0000
   9101 C         123.1968  184.5535   29.3330 C.3    1300      M_A    0.0000
   9102 C         122.7754  183.3766   28.4582 C.3    1300      M_A    0.0000
   9103 O         122.0149  182.4363   29.2167 O.3    1300      M_A    0.0000
   9104 H         122.4177  184.8040   30.0609 H      1300      M_A    0.0000
   9105 H         123.3498  185.4321   28.6958 H      1300      M_A    0.0000
   9106 H         122.2115  183.7355   27.5851 H      1300      M_A    0.0000
   9107 H         123.6516  182.8477   28.0629 H      1300      M_A    0.0000
   9108 C         122.3424  181.1062   28.8696 C.3    1301      M_A    0.0000
   9109 C         121.7923  180.0985   29.8746 C.3    1301      M_A    0.0000
   9110 O         120.3908  179.9107   29.6789 O.3    1301      M_A    0.0000
   9111 H         121.9730  180.8991   27.8596 H      1301      M_A    0.0000
   9112 H         123.4351  181.0233   28.8464 H      1301      M_A    0.0000
   9113 H         122.3381  179.1473   29.7958 H      1301      M_A    0.0000
   9114 H         121.9359  180.4518   30.9034 H      1301      M_A    0.0000
   9115 C         119.9294  178.7443   30.3298 C.3    1302      M_A    0.0000
   9116 C         119.7183  178.9663   31.8245 C.3    1302      M_A    0.0000
   9117 O         119.5336  180.3542   32.1032 O.3    1302      M_A    0.0000
   9118 H         119.0067  178.4064   29.8461 H      1302      M_A    0.0000
   9119 H         120.6827  177.9604   30.1907 H      1302      M_A    0.0000
   9120 H         118.8655  178.3702   32.1800 H      1302      M_A    0.0000
   9121 H         120.5904  178.6292   32.3986 H      1302      M_A    0.0000
   9122 C         120.6659  180.9087   32.7414 C.3    1303      M_A    0.0000
   9123 C         121.2919  179.9418   33.7421 C.3    1303      M_A    0.0000
   9124 O         122.5388  179.4506   33.2506 O.3    1303      M_A    0.0000
   9125 H         121.3914  181.2142   31.9800 H      1303      M_A    0.0000
   9126 H         120.3444  181.8111   33.2739 H      1303      M_A    0.0000
   9127 H         121.4122  180.4318   34.7190 H      1303      M_A    0.0000
   9128 H         120.6407  179.0749   33.9105 H      1303      M_A    0.0000
   9129 C         122.4854  178.0605   33.0020 C.3    1304      M_A    0.0000
   9130 C         123.8508  177.4913   32.6281 C.3    1304      M_A    0.0000
   9131 O         124.3590  178.1360   31.4602 O.3    1304      M_A    0.0000
   9132 H         122.0744  177.5556   33.8827 H      1304      M_A    0.0000
   9133 H         121.7916  177.8933   32.1702 H      1304      M_A    0.0000
   9134 H         124.5470  177.5884   33.4735 H      1304      M_A    0.0000
   9135 H         123.7819  176.4187   32.4075 H      1304      M_A    0.0000
   9136 C         125.1855  179.2328   31.7932 C.3    1305      M_A    0.0000
   9137 C         124.3833  180.5142   32.0000 C.3    1305      M_A    0.0000
   9138 O         123.8080  180.9488   30.7679 O.3    1305      M_A    0.0000
   9139 H         125.7684  178.9829   32.6861 H      1305      M_A    0.0000
   9140 H         125.8913  179.3855   30.9687 H      1305      M_A    0.0000
   9141 H         123.6124  180.3595   32.7686 H      1305      M_A    0.0000
   9142 H         125.0256  181.3246   32.3666 H      1305      M_A    0.0000
   9143 C         122.6047  181.6584   30.9808 C.3    1306      M_A    0.0000
   9144 C         121.6656  181.5691   29.7815 C.3    1306      M_A    0.0000
   9145 O         120.6737  180.5652   29.9963 O.3    1306      M_A    0.0000
   9146 H         122.1230  181.2808   31.8890 H      1306      M_A    0.0000
   9147 H         122.8598  182.7102   31.1537 H      1306      M_A    0.0000
   9148 H         121.2069  182.5488   29.5849 H      1306      M_A    0.0000
   9149 H         122.2155  181.2982   28.8716 H      1306      M_A    0.0000
   9150 C         119.5975  181.0581   30.7681 C.3    1307      M_A    0.0000
   9151 C         118.7842  182.1069   30.0155 C.3    1307      M_A    0.0000
   9152 O         117.5550  181.5487   29.5513 O.3    1307      M_A    0.0000
   9153 H         118.9675  180.2183   31.0801 H      1307      M_A    0.0000
   9154 H         120.0135  181.5146   31.6736 H      1307      M_A    0.0000
   9155 H         118.6087  182.9829   30.6564 H      1307      M_A    0.0000
   9156 H         119.3314  182.4723   29.1375 H      1307      M_A    0.0000
   9157 C         117.7708  180.3589   28.8200 C.3    1308      M_A    0.0000
   9158 C         117.0832  179.1577   29.4622 C.3    1308      M_A    0.0000
   9159 O         117.1889  178.0107   28.6189 O.3    1308      M_A    0.0000
   9160 H         117.4294  180.5058   27.7898 H      1308      M_A    0.0000
   9161 H         118.8507  180.1741   28.7882 H      1308      M_A    0.0000
   9162 H         117.5096  178.9633   30.4569 H      1308      M_A    0.0000
   9163 H         116.0150  179.3537   29.6178 H      1308      M_A    0.0000
   9164 C         117.9564  176.9913   29.2261 C.3    1309      M_A    0.0000
   9165 C         117.3102  176.4718   30.5070 C.3    1309      M_A    0.0000
   9166 O         116.9012  175.1136   30.3460 O.3    1309      M_A    0.0000
   9167 H         118.1101  176.1818   28.5045 H      1309      M_A    0.0000
   9168 H         118.9398  177.4095   29.4695 H      1309      M_A    0.0000
   9169 H         118.0028  176.5832   31.3537 H      1309      M_A    0.0000
   9170 H         116.4169  177.0560   30.7609 H      1309      M_A    0.0000
   9171 C         117.3489  174.3082   31.4174 C.3    1310      M_A    0.0000
   9172 C         117.7994  175.1419   32.6132 C.3    1310      M_A    0.0000
   9173 O         116.6823  175.4867   33.4323 O.3    1310      M_A    0.0000
   9174 H         116.5515  173.6121   31.6987 H      1310      M_A    0.0000
   9175 H         118.1973  173.7134   31.0601 H      1310      M_A    0.0000
   9176 H         118.5641  174.5994   33.1876 H      1310      M_A    0.0000
   9177 H         118.2675  176.0784   32.2849 H      1310      M_A    0.0000
   9178 C         116.7833  174.9052   34.7163 C.3    1311      M_A    0.0000
   9179 C         116.5996  175.9336   35.8284 C.3    1311      M_A    0.0000
   9180 O         115.2513  175.9283   36.2972 O.3    1311      M_A    0.0000
   9181 H         116.0500  174.0961   34.8009 H      1311      M_A    0.0000
   9182 H         117.7806  174.4595   34.8068 H      1311      M_A    0.0000
   9183 H         117.3081  175.7388   36.6463 H      1311      M_A    0.0000
   9184 H         116.8176  176.9462   35.4666 H      1311      M_A    0.0000
   9185 C         114.4132  175.1654   35.4530 C.3    1312      M_A    0.0000
   9186 C         115.2066  174.2037   34.5734 C.3    1312      M_A    0.0000
   9187 O         115.8803  173.2328   35.3744 O.3    1312      M_A    0.0000
   9188 H         113.6818  174.6283   36.0663 H      1312      M_A    0.0000
   9189 H         113.8604  175.8599   34.8101 H      1312      M_A    0.0000
   9190 H         114.5425  173.7251   33.8393 H      1312      M_A    0.0000
   9191 H         115.9698  174.7393   33.9952 H      1312      M_A    0.0000
   9192 C         114.9806  172.5458   36.2202 C.3    1313      M_A    0.0000
   9193 C         114.2069  173.4966   37.1287 C.3    1313      M_A    0.0000
   9194 O         113.1736  174.1571   36.3981 O.3    1313      M_A    0.0000
   9195 H         114.3011  171.9450   35.6064 H      1313      M_A    0.0000
   9196 H         115.5627  171.8561   36.8421 H      1313      M_A    0.0000
   9197 H         113.7998  172.9499   37.9915 H      1313      M_A    0.0000
   9198 H         114.8665  174.2717   37.5385 H      1313      M_A    0.0000
   9199 C         113.6181  175.3926   35.8758 C.3    1314      M_A    0.0000
   9200 C         112.6804  175.9316   34.7995 C.3    1314      M_A    0.0000
   9201 O         111.8884  174.8776   34.2521 O.3    1314      M_A    0.0000
   9202 H         113.7300  176.1083   36.6972 H      1314      M_A    0.0000
   9203 H         114.6096  175.2353   35.4358 H      1314      M_A    0.0000
   9204 H         112.0501  176.7326   35.2118 H      1314      M_A    0.0000
   9205 H         113.2470  176.3797   33.9737 H      1314      M_A    0.0000
   9206 C         112.5565  173.6348   34.3296 C.3    1315      M_A    0.0000
   9207 C         111.8783  172.6782   35.3058 C.3    1315      M_A    0.0000
   9208 O         110.7834  172.0132   34.6757 O.3    1315      M_A    0.0000
   9209 H         112.6175  173.1988   33.3268 H      1315      M_A    0.0000
   9210 H         113.5805  173.8235   34.6718 H      1315      M_A    0.0000
   9211 H         112.6092  171.9583   35.7014 H      1315      M_A    0.0000
   9212 H         111.4789  173.2196   36.1725 H      1315      M_A    0.0000
   9213 C         111.1835  170.7830   34.1070 C.3    1316      M_A    0.0000
   9214 C         110.7240  170.6435   32.6588 C.3    1316      M_A    0.0000
   9215 O         110.7919  169.2800   32.2413 O.3    1316      M_A    0.0000
   9216 H         112.2718  170.6894   34.1872 H      1316      M_A    0.0000
   9217 H         110.7369  169.9766   34.7000 H      1316      M_A    0.0000
   9218 H         109.7078  171.0471   32.5425 H      1316      M_A    0.0000
   9219 H         111.3656  171.2255   31.9855 H      1316      M_A    0.0000
   9220 C         111.8060  168.5779   32.9309 C.3    1317      M_A    0.0000
   9221 C         112.0702  169.1633   34.3149 C.3    1317      M_A    0.0000
   9222 O         111.1660  168.6122   35.2724 O.3    1317      M_A    0.0000
   9223 H         111.5279  167.5205   32.9954 H      1317      M_A    0.0000
   9224 H         112.7248  168.6433   32.3369 H      1317      M_A    0.0000
   9225 H         113.1160  168.9903   34.6068 H      1317      M_A    0.0000
   9226 H         111.9262  170.2509   34.3152 H      1317      M_A    0.0000
   9227 C         111.2294  167.2006   35.2910 C.3    1318      M_A    0.0000
   9228 C         112.6247  166.6932   35.6431 C.3    1318      M_A    0.0000
   9229 O         112.7218  166.4262   37.0421 O.3    1318      M_A    0.0000
   9230 H         110.4809  166.8185   35.9932 H      1318      M_A    0.0000
   9231 H         110.9620  166.8381   34.2918 H      1318      M_A    0.0000
   9232 H         112.8652  165.8005   35.0480 H      1318      M_A    0.0000
   9233 H         113.3882  167.4419   35.3978 H      1318      M_A    0.0000
   9234 C         113.7136  165.4577   37.3162 C.3    1319      M_A    0.0000
   9235 C         115.1051  166.0747   37.4214 C.3    1319      M_A    0.0000
   9236 O         115.5106  166.1651   38.7871 O.3    1319      M_A    0.0000
   9237 H         113.4475  164.9237   38.2347 H      1319      M_A    0.0000
   9238 H         113.7095  164.7299   36.4967 H      1319      M_A    0.0000
   9239 H         115.8245  165.4918   36.8284 H      1319      M_A    0.0000
   9240 H         115.1163  167.0907   37.0074 H      1319      M_A    0.0000
   9241 C         115.9813  167.4597   39.1023 C.3    1320      M_A    0.0000
   9242 C         117.4534  167.4534   39.5035 C.3    1320      M_A    0.0000
   9243 O         117.8246  168.7126   40.0644 O.3    1320      M_A    0.0000
   9244 H         115.8075  168.1212   38.2469 H      1320      M_A    0.0000
   9245 H         115.3868  167.8395   39.9411 H      1320      M_A    0.0000
   9246 H         117.6524  166.6295   40.2038 H      1320      M_A    0.0000
   9247 H         118.0971  167.2794   38.6322 H      1320      M_A    0.0000
   9248 C         118.6678  169.4385   39.1932 C.3    1321      M_A    0.0000
   9249 C         119.9313  169.9294   39.8938 C.3    1321      M_A    0.0000
   9250 O         119.6086  170.5165   41.1543 O.3    1321      M_A    0.0000
   9251 H         118.9130  168.8120   38.3289 H      1321      M_A    0.0000
   9252 H         118.1067  170.3053   38.8257 H      1321      M_A    0.0000
   9253 H         120.6468  169.1025   40.0092 H      1321      M_A    0.0000
   9254 H         120.4397  170.6954   39.2951 H      1321      M_A    0.0000
   9255 C         120.5611  171.4904   41.5303 C.3    1322      M_A    0.0000
   9256 C         120.7707  172.5387   40.4416 C.3    1322      M_A    0.0000
   9257 O         119.6838  173.4639   40.4218 O.3    1322      M_A    0.0000
   9258 H         120.2453  171.9547   42.4706 H      1322      M_A    0.0000
   9259 H         121.5117  170.9777   41.7166 H      1322      M_A    0.0000
   9260 H         121.7311  173.0531   40.5899 H      1322      M_A    0.0000
   9261 H         120.8218  172.0706   39.4505 H      1322      M_A    0.0000
   9262 C         119.6203  174.1611   39.1943 C.3    1323      M_A    0.0000
   9263 C         119.9955  175.6319   39.3492 C.3    1323      M_A    0.0000
   9264 O         121.3973  175.8145   39.1506 O.3    1323      M_A    0.0000
   9265 H         120.2688  173.6623   38.4661 H      1323      M_A    0.0000
   9266 H         118.5916  174.0949   38.8220 H      1323      M_A    0.0000
   9267 H         119.4093  176.2485   38.6527 H      1323      M_A    0.0000
   9268 H         119.7566  175.9939   40.3570 H      1323      M_A    0.0000
   9269 C         121.9013  176.8626   39.9534 C.3    1324      M_A    0.0000
   9270 C         123.3071  177.2820   39.5340 C.3    1324      M_A    0.0000
   9271 O         123.2552  178.1276   38.3850 O.3    1324      M_A    0.0000
   9272 H         121.2075  177.7091   39.9127 H      1324      M_A    0.0000
   9273 H         121.9314  176.5084   40.9901 H      1324      M_A    0.0000
   9274 H         123.8214  177.7757   40.3710 H      1324      M_A    0.0000
   9275 H         123.9156  176.4077   39.2711 H      1324      M_A    0.0000
   9276 C         123.2934  177.3771   37.1883 C.3    1325      M_A    0.0000
   9277 C         124.1822  178.0264   36.1316 C.3    1325      M_A    0.0000
   9278 O         125.5604  177.8309   36.4480 O.3    1325      M_A    0.0000
   9279 H         123.6282  176.3593   37.4153 H      1325      M_A    0.0000
   9280 H         122.2709  177.3107   36.7993 H      1325      M_A    0.0000
   9281 H         123.9403  177.6284   35.1355 H      1325      M_A    0.0000
   9282 H         124.0068  179.1083   36.0820 H      1325      M_A    0.0000
   9283 C         126.3719  177.9062   35.2936 C.3    1326      M_A    0.0000
   9284 C         127.6607  178.6826   35.5473 C.3    1326      M_A    0.0000
   9285 O         128.7044  177.7995   35.9578 O.3    1326      M_A    0.0000
   9286 H         126.5847  176.8918   34.9395 H      1326      M_A    0.0000
   9287 H         125.7986  178.4167   34.5114 H      1326      M_A    0.0000
   9288 H         127.9460  179.2485   34.6488 H      1326      M_A    0.0000
   9289 H         127.5228  179.4219   36.3461 H      1326      M_A    0.0000
   9290 C         129.1248  178.0742   37.2787 C.3    1327      M_A    0.0000
   9291 C         130.5802  178.5289   37.3351 C.3    1327      M_A    0.0000
   9292 O         130.6719  179.8485   37.8718 O.3    1327      M_A    0.0000
   9293 H         128.4588  178.8253   37.7167 H      1327      M_A    0.0000
   9294 H         129.0178  177.1542   37.8647 H      1327      M_A    0.0000
   9295 H         131.1780  177.8163   37.9215 H      1327      M_A    0.0000
   9296 H         131.0239  178.5507   36.3318 H      1327      M_A    0.0000
   9297 C         130.5616  179.8427   39.2806 C.3    1328      M_A    0.0000
   9298 C         129.1572  179.4686   39.7450 C.3    1328      M_A    0.0000
   9299 O         128.3825  178.9774   38.6511 O.3    1328      M_A    0.0000
   9300 H         131.3102  179.1589   39.6948 H      1328      M_A    0.0000
   9301 H         130.7977  180.8504   39.6412 H      1328      M_A    0.0000
   9302 H         129.2104  178.7322   40.5597 H      1328      M_A    0.0000
   9303 H         128.6329  180.3418   40.1528 H      1328      M_A    0.0000
   9304 C         128.5630  177.5873   38.4725 C.3    1329      M_A    0.0000
   9305 C         127.9262  177.0871   37.1793 C.3    1329      M_A    0.0000
   9306 O         127.0379  178.0693   36.6463 O.3    1329      M_A    0.0000
   9307 H         129.6339  177.3595   38.4998 H      1329      M_A    0.0000
   9308 H         128.0935  177.0749   39.3201 H      1329      M_A    0.0000
   9309 H         128.7056  176.8164   36.4525 H      1329      M_A    0.0000
   9310 H         127.3407  176.1763   37.3567 H      1329      M_A    0.0000
   9311 C         126.3829  177.5989   35.4858 C.3    1330      M_A    0.0000
   9312 C         125.0715  176.8913   35.8138 C.3    1330      M_A    0.0000
   9313 O         125.0947  176.3882   37.1496 O.3    1330      M_A    0.0000
   9314 H         126.2187  178.4391   34.8028 H      1330      M_A    0.0000
   9315 H         127.0524  176.8904   34.9847 H      1330      M_A    0.0000
   9316 H         124.2231  177.5731   35.6579 H      1330      M_A    0.0000
   9317 H         124.9078  176.0378   35.1441 H      1330      M_A    0.0000
   9318 C         125.9480  177.1538   37.9758 C.3    1331      M_A    0.0000
   9319 C         127.4058  176.7197   37.8543 C.3    1331      M_A    0.0000
   9320 O         128.2598  177.8586   37.7475 O.3    1331      M_A    0.0000
   9321 H         125.8292  178.2138   37.7275 H      1331      M_A    0.0000
   9322 H         125.6229  177.0180   39.0137 H      1331      M_A    0.0000
   9323 H         127.6863  176.0884   38.7097 H      1331      M_A    0.0000
   9324 H         127.5598  176.1082   36.9565 H      1331      M_A    0.0000
   9325 C         128.3684  178.2999   36.4094 C.3    1332      M_A    0.0000
   9326 C         128.4724  179.8192   36.3125 C.3    1332      M_A    0.0000
   9327 O         129.7596  180.2612   36.7432 O.3    1332      M_A    0.0000
   9328 H         129.2314  177.8141   35.9418 H      1332      M_A    0.0000
   9329 H         127.4715  177.9710   35.8722 H      1332      M_A    0.0000
   9330 H         128.2590  180.1494   35.2857 H      1332      M_A    0.0000
   9331 H         127.7266  180.3054   36.9538 H      1332      M_A    0.0000
   9332 C         129.8717  180.2330   38.1516 C.3    1333      M_A    0.0000
   9333 C         131.2865  180.5582   38.6215 C.3    1333      M_A    0.0000
   9334 O         131.3546  181.8955   39.1164 O.3    1333      M_A    0.0000
   9335 H         129.1428  180.9278   38.5821 H      1333      M_A    0.0000
   9336 H         129.6086  179.2245   38.4905 H      1333      M_A    0.0000
   9337 H         131.6097  179.8333   39.3824 H      1333      M_A    0.0000
   9338 H         132.0032  180.4771   37.7947 H      1333      M_A    0.0000
   9339 C         132.6874  182.2802   39.3854 C.3    1334      M_A    0.0000
   9340 C         132.9128  182.5732   40.8658 C.3    1334      M_A    0.0000
   9341 O         133.6895  181.5380   41.4682 O.3    1334      M_A    0.0000
   9342 H         133.3644  181.4960   39.0301 H      1334      M_A    0.0000
   9343 H         132.8993  183.1875   38.8082 H      1334      M_A    0.0000
   9344 H         133.3909  183.5555   40.9898 H      1334      M_A    0.0000
   9345 H         131.9589  182.6245   41.4055 H      1334      M_A    0.0000
   9346 C         134.9267  181.3681   40.8068 C.3    1335      M_A    0.0000
   9347 C         135.9571  180.6675   41.6875 C.3    1335      M_A    0.0000
   9348 O         136.5714  179.5909   40.9793 O.3    1335      M_A    0.0000
   9349 H         134.7612  180.8155   39.8758 H      1335      M_A    0.0000
   9350 H         135.3052  182.3614   40.5398 H      1335      M_A    0.0000
   9351 H         136.7052  181.3899   42.0443 H      1335      M_A    0.0000
   9352 H         135.4853  180.2446   42.5832 H      1335      M_A    0.0000
   9353 C         137.7582  179.1635   41.6161 C.3    1336      M_A    0.0000
   9354 C         138.8307  178.7487   40.6131 C.3    1336      M_A    0.0000
   9355 O         140.1309  179.0611   41.1128 O.3    1336      M_A    0.0000
   9356 H         138.1190  179.9622   42.2729 H      1336      M_A    0.0000
   9357 H         137.5107  178.3020   42.2470 H      1336      M_A    0.0000
   9358 H         138.7385  177.6782   40.3798 H      1336      M_A    0.0000
   9359 H         138.7069  179.2829   39.6628 H      1336      M_A    0.0000
   9360 C         140.8161  177.8991   41.5338 C.3    1337      M_A    0.0000
   9361 C         142.2566  177.8683   41.0318 C.3    1337      M_A    0.0000
   9362 O         143.0948  177.1778   41.9582 O.3    1337      M_A    0.0000
   9363 H         140.7769  177.8374   42.6266 H      1337      M_A    0.0000
   9364 H         140.2824  177.0295   41.1335 H      1337      M_A    0.0000
   9365 H         142.3008  177.4094   40.0336 H      1337      M_A    0.0000
   9366 H         142.6557  178.8844   40.9217 H      1337      M_A    0.0000
   9367 C         142.4012  176.1267   42.5994 C.3    1338      M_A    0.0000
   9368 C         142.8495  174.7556   42.1022 C.3    1338      M_A    0.0000
   9369 O         143.4489  174.0103   43.1620 O.3    1338      M_A    0.0000
   9370 H         142.5360  176.2180   43.6824 H      1338      M_A    0.0000
   9371 H         141.3329  176.2490   42.3869 H      1338      M_A    0.0000
   9372 H         141.9989  174.2141   41.6638 H      1338      M_A    0.0000
   9373 H         143.5970  174.8523   41.3049 H      1338      M_A    0.0000
   9374 C         143.3590  172.6191   42.9311 C.3    1339      M_A    0.0000
   9375 C         144.6654  172.0403   42.3959 C.3    1339      M_A    0.0000
   9376 O         144.8460  170.7016   42.8574 O.3    1339      M_A    0.0000
   9377 H         143.0571  172.1217   43.8590 H      1339      M_A    0.0000
   9378 H         142.5674  172.4506   42.1921 H      1339      M_A    0.0000
   9379 H         144.6807  172.0901   41.2976 H      1339      M_A    0.0000
   9380 H         145.5257  172.6263   42.7428 H      1339      M_A    0.0000
   9381 C         145.6512  169.9527   41.9699 C.3    1340      M_A    0.0000
   9382 C         146.5790  168.9922   42.7080 C.3    1340      M_A    0.0000
   9383 O         147.3859  168.2648   41.7819 O.3    1340      M_A    0.0000
   9384 H         145.0049  169.4162   41.2671 H      1340      M_A    0.0000
   9385 H         146.2587  170.6571   41.3901 H      1340      M_A    0.0000
   9386 H         147.1979  169.5427   43.4311 H      1340      M_A    0.0000
   9387 H         146.0044  168.2599   43.2889 H      1340      M_A    0.0000
   9388 C         146.6008  167.6668   40.7705 C.3    1341      M_A    0.0000
   9389 C         147.2488  167.7869   39.3943 C.3    1341      M_A    0.0000
   9390 O         146.3293  167.4009   38.3728 O.3    1341      M_A    0.0000
   9391 H         146.4193  166.6188   41.0318 H      1341      M_A    0.0000
   9392 H         145.6307  168.1764   40.7513 H      1341      M_A    0.0000
   9393 H         147.6157  168.8112   39.2357 H      1341      M_A    0.0000
   9394 H         148.1240  167.1302   39.3138 H      1341      M_A    0.0000
   9395 C         145.4452  168.4542   38.0478 C.3    1342      M_A    0.0000
   9396 C         143.9852  168.0636   38.2575 C.3    1342      M_A    0.0000
   9397 O         143.4395  168.7524   39.3825 O.3    1342      M_A    0.0000
   9398 H         145.7074  169.3368   38.6409 H      1342      M_A    0.0000
   9399 H         145.5963  168.7074   36.9921 H      1342      M_A    0.0000
   9400 H         143.4040  168.2637   37.3458 H      1342      M_A    0.0000
   9401 H         143.8907  166.9882   38.4533 H      1342      M_A    0.0000
   9402 C         143.9859  168.2760   40.5956 C.3    1343      M_A    0.0000
   9403 C         143.7079  169.2210   41.7608 C.3    1343      M_A    0.0000
   9404 O         142.6861  170.1557   41.4143 O.3    1343      M_A    0.0000
   9405 H         143.5912  167.2743   40.7962 H      1343      M_A    0.0000
   9406 H         145.0702  168.1848   40.4639 H      1343      M_A    0.0000
   9407 H         143.4371  168.6470   42.6587 H      1343      M_A    0.0000
   9408 H         144.6047  169.7966   42.0220 H      1343      M_A    0.0000
   9409 C         141.4333  169.7723   41.9439 C.3    1344      M_A    0.0000
   9410 C         140.4362  169.4027   40.8495 C.3    1344      M_A    0.0000
   9411 O         139.9723  170.5743   40.1787 O.3    1344      M_A    0.0000
   9412 H         141.5797  168.9415   42.6423 H      1344      M_A    0.0000
   9413 H         141.0353  170.6190   42.5148 H      1344      M_A    0.0000
   9414 H         140.8922  168.6925   40.1448 H      1344      M_A    0.0000
   9415 H         139.5590  168.8972   41.2722 H      1344      M_A    0.0000
   9416 C         140.9897  171.1547   39.3882 C.3    1345      M_A    0.0000
   9417 C         142.3767  170.9337   39.9846 C.3    1345      M_A    0.0000
   9418 O         143.2417  170.3231   39.0271 O.3    1345      M_A    0.0000
   9419 H         140.9273  170.7504   38.3722 H      1345      M_A    0.0000
   9420 H         140.7970  172.2320   39.3286 H      1345      M_A    0.0000
   9421 H         142.7901  171.8859   40.3470 H      1345      M_A    0.0000
   9422 H         142.3280  170.2677   40.8552 H      1345      M_A    0.0000
   9423 C         144.5264  170.0878   39.5667 C.3    1346      M_A    0.0000
   9424 C         145.6121  170.1097   38.4948 C.3    1346      M_A    0.0000
   9425 O         145.9216  171.4529   38.1233 O.3    1346      M_A    0.0000
   9426 H         144.7271  170.8288   40.3478 H      1346      M_A    0.0000
   9427 H         144.5168  169.1000   40.0414 H      1346      M_A    0.0000
   9428 H         146.5061  169.5768   38.8492 H      1346      M_A    0.0000
   9429 H         145.2803  169.5866   37.5892 H      1346      M_A    0.0000
   9430 C         146.9357  171.4970   37.1402 C.3    1347      M_A    0.0000
   9431 C         148.1685  172.2568   37.6207 C.3    1347      M_A    0.0000
   9432 O         149.1028  171.3632   38.2260 O.3    1347      M_A    0.0000
   9433 H         147.1920  170.4740   36.8450 H      1347      M_A    0.0000
   9434 H         146.5281  172.0042   36.2581 H      1347      M_A    0.0000
   9435 H         148.6249  172.8068   36.7852 H      1347      M_A    0.0000
   9436 H         147.8980  173.0083   38.3730 H      1347      M_A    0.0000
   9437 C         149.0522  170.0819   37.6321 C.3    1348      M_A    0.0000
   9438 C         150.4039  169.3752   37.6757 C.3    1348      M_A    0.0000
   9439 O         150.3073  168.0743   37.0959 O.3    1348      M_A    0.0000
   9440 H         148.2791  169.4873   38.1303 H      1348      M_A    0.0000
   9441 H         148.7512  170.2072   36.5857 H      1348      M_A    0.0000
   9442 H         151.1666  169.9834   37.1685 H      1348      M_A    0.0000
   9443 H         150.7479  169.2493   38.7099 H      1348      M_A    0.0000
   9444 C         148.9643  167.6422   37.0156 C.3    1349      M_A    0.0000
   9445 C         148.8374  166.2872   36.3257 C.3    1349      M_A    0.0000
   9446 O         149.8097  165.3738   36.8340 O.3    1349      M_A    0.0000
   9447 H         148.5370  167.6140   38.0237 H      1349      M_A    0.0000
   9448 H         148.4044  168.3874   36.4390 H      1349      M_A    0.0000
   9449 H         147.8178  165.8939   36.4463 H      1349      M_A    0.0000
   9450 H         149.0063  166.3793   35.2455 H      1349      M_A    0.0000
   9451 C         149.6734  165.1968   38.2293 C.3    1350      M_A    0.0000
   9452 C         150.2312  163.8552   38.6951 C.3    1350      M_A    0.0000
   9453 O         151.6484  163.9291   38.8503 O.3    1350      M_A    0.0000
   9454 H         150.1640  166.0293   38.7448 H      1350      M_A    0.0000
   9455 H         148.6054  165.2401   38.4718 H      1350      M_A    0.0000
   9456 H         149.7423  163.5447   39.6297 H      1350      M_A    0.0000
   9457 H         150.0218  163.0669   37.9613 H      1350      M_A    0.0000
   9458 C         152.2242  162.6435   38.9622 C.3    1351      M_A    0.0000
   9459 C         153.2736  162.5787   40.0680 C.3    1351      M_A    0.0000
   9460 O         154.3954  161.8020   39.6484 O.3    1351      M_A    0.0000
   9461 H         151.4290  161.9090   39.1285 H      1351      M_A    0.0000
   9462 H         152.7020  162.4037   38.0054 H      1351      M_A    0.0000
   9463 H         153.5776  163.5935   40.3626 H      1351      M_A    0.0000
   9464 H         152.8652  162.1055   40.9696 H      1351      M_A    0.0000
   9465 C         154.0126  160.4874   39.2987 C.3    1352      M_A    0.0000
   9466 C         155.0130  159.8308   38.3520 C.3    1352      M_A    0.0000
   9467 O         156.3391  160.2747   38.6386 O.3    1352      M_A    0.0000
   9468 H         153.8868  159.8968   40.2124 H      1352      M_A    0.0000
   9469 H         153.0371  160.5413   38.8020 H      1352      M_A    0.0000
   9470 H         154.9350  158.7360   38.4172 H      1352      M_A    0.0000
   9471 H         154.7969  160.0934   37.3088 H      1352      M_A    0.0000
   9472 C         156.5128  160.5282   40.0179 C.3    1353      M_A    0.0000
   9473 C         157.0973  159.3260   40.7535 C.3    1353      M_A    0.0000
   9474 O         158.5114  159.2649   40.5683 O.3    1353      M_A    0.0000
   9475 H         157.1460  161.4133   40.1416 H      1353      M_A    0.0000
   9476 H         155.5303  160.7614   40.4441 H      1353      M_A    0.0000
   9477 H         156.8353  159.3698   41.8205 H      1353      M_A    0.0000
   9478 H         156.6750  158.3884   40.3708 H      1353      M_A    0.0000
   9479 C         158.8915  158.0971   39.8692 C.3    1354      M_A    0.0000
   9480 C         160.0176  158.3641   38.8749 C.3    1354      M_A    0.0000
   9481 O         160.9251  157.2627   38.8388 O.3    1354      M_A    0.0000
   9482 H         159.1769  157.3250   40.5917 H      1354      M_A    0.0000
   9483 H         158.0149  157.7314   39.3223 H      1354      M_A    0.0000
   9484 H         159.6025  158.5730   37.8784 H      1354      M_A    0.0000
   9485 H         160.5920  159.2538   39.1619 H      1354      M_A    0.0000
   9486 C         160.2478  156.0299   38.9734 C.3    1355      M_A    0.0000
   9487 C         160.7374  154.9929   37.9669 C.3    1355      M_A    0.0000
   9488 O         162.1492  155.0999   37.7847 O.3    1355      M_A    0.0000
   9489 H         160.3636  155.6689   40.0009 H      1355      M_A    0.0000
   9490 H         159.1802  156.2117   38.8043 H      1355      M_A    0.0000
   9491 H         160.4518  153.9826   38.2935 H      1355      M_A    0.0000
   9492 H         160.2673  155.1443   36.9872 H      1355      M_A    0.0000
   9493 C         162.4978  156.3106   37.1447 C.3    1356      M_A    0.0000
   9494 C         163.9861  156.3778   36.8148 C.3    1356      M_A    0.0000
   9495 O         164.2583  155.6978   35.5896 O.3    1356      M_A    0.0000
   9496 H         161.8874  156.4267   36.2428 H      1356      M_A    0.0000
   9497 H         162.2474  157.1345   37.8228 H      1356      M_A    0.0000
   9498 H         164.3187  157.4250   36.7734 H      1356      M_A    0.0000
   9499 H         164.5839  155.8954   37.5982 H      1356      M_A    0.0000
   9500 C         164.1168  154.2990   35.7319 C.3    1357      M_A    0.0000
   9501 C         165.1483  153.5310   34.9109 C.3    1357      M_A    0.0000
   9502 O         164.5346  152.9326   33.7694 O.3    1357      M_A    0.0000
   9503 H         164.1839  154.0392   36.7938 H      1357      M_A    0.0000
   9504 H         163.1133  154.0249   35.3865 H      1357      M_A    0.0000
   9505 H         165.9728  154.1971   34.6184 H      1357      M_A    0.0000
   9506 H         165.5991  152.7242   35.5022 H      1357      M_A    0.0000
   9507 C         164.0434  151.6407   34.0639 C.3    1358      M_A    0.0000
   9508 C         163.6311  151.5029   35.5265 C.3    1358      M_A    0.0000
   9509 O         162.2173  151.3370   35.6344 O.3    1358      M_A    0.0000
   9510 H         163.2065  151.4154   33.3944 H      1358      M_A    0.0000
   9511 H         164.8414  150.9202   33.8511 H      1358      M_A    0.0000
   9512 H         164.1688  150.6662   35.9952 H      1358      M_A    0.0000
   9513 H         163.9009  152.4006   36.0967 H      1358      M_A    0.0000
   9514 C         161.8339  151.0133   36.9554 C.3    1359      M_A    0.0000
   9515 C         160.6345  150.0707   36.9905 C.3    1359      M_A    0.0000
   9516 O         160.8147  149.0684   37.9909 O.3    1359      M_A    0.0000
   9517 H         162.6920  150.5807   37.4808 H      1359      M_A    0.0000
   9518 H         161.5675  151.9452   37.4670 H      1359      M_A    0.0000
   9519 H         159.7090  150.6403   37.1573 H      1359      M_A    0.0000
   9520 H         160.5109  149.5567   36.0291 H      1359      M_A    0.0000
   9521 C         160.8968  149.6357   39.2825 C.3    1360      M_A    0.0000
   9522 C         160.7083  148.5931   40.3805 C.3    1360      M_A    0.0000
   9523 O         161.8881  147.8032   40.5286 O.3    1360      M_A    0.0000
   9524 H         161.8583  150.1499   39.3865 H      1360      M_A    0.0000
   9525 H         160.1064  150.3899   39.3702 H      1360      M_A    0.0000
   9526 H         160.4339  149.0830   41.3259 H      1360      M_A    0.0000
   9527 H         159.8845  147.9108   40.1367 H      1360      M_A    0.0000
   9528 C         161.5794  146.4289   40.6432 C.3    1361      M_A    0.0000
   9529 C         160.4528  146.0131   39.7019 C.3    1361      M_A    0.0000
   9530 O         159.9535  144.7239   40.0576 O.3    1361      M_A    0.0000
   9531 H         162.4857  145.8425   40.4583 H      1361      M_A    0.0000
   9532 H         161.2666  146.2388   41.6763 H      1361      M_A    0.0000
   9533 H         159.6532  146.7678   39.7102 H      1361      M_A    0.0000
   9534 H         160.8089  145.9531   38.6658 H      1361      M_A    0.0000
   9535 C         160.7986  143.6940   39.5866 C.3    1362      M_A    0.0000
   9536 C         162.2006  143.7844   40.1819 C.3    1362      M_A    0.0000
   9537 O         162.7125  142.4805   40.4572 O.3    1362      M_A    0.0000
   9538 H         160.3377  142.7250   39.8062 H      1362      M_A    0.0000
   9539 H         160.8694  143.7880   38.4969 H      1362      M_A    0.0000
   9540 H         162.8653  144.3401   39.5048 H      1362      M_A    0.0000
   9541 H         162.1904  144.3398   41.1280 H      1362      M_A    0.0000
   9542 C         164.0305  142.5386   40.9635 C.3    1363      M_A    0.0000
   9543 C         165.0080  141.7320   40.1137 C.3    1363      M_A    0.0000
   9544 O         166.1575  142.5156   39.7934 O.3    1363      M_A    0.0000
   9545 H         164.3402  143.5867   41.0346 H      1363      M_A    0.0000
   9546 H         164.0199  142.1265   41.9790 H      1363      M_A    0.0000
   9547 H         165.2884  140.8051   40.6344 H      1363      M_A    0.0000
   9548 H         164.5452  141.4257   39.1672 H      1363      M_A    0.0000
   9549 C         165.8775  143.4512   38.7720 C.3    1364      M_A    0.0000
   9550 C         167.1104  144.2605   38.3809 C.3    1364      M_A    0.0000
   9551 O         167.7214  143.7095   37.2143 O.3    1364      M_A    0.0000
   9552 H         165.4610  142.9228   37.9078 H      1364      M_A    0.0000
   9553 H         165.1072  144.1362   39.1444 H      1364      M_A    0.0000
   9554 H         166.8398  145.3155   38.2303 H      1364      M_A    0.0000
   9555 H         167.8598  144.2461   39.1822 H      1364      M_A    0.0000
   9556 C         167.9896  144.7075   36.2505 C.3    1365      M_A    0.0000
   9557 C         168.4515  144.1141   34.9228 C.3    1365      M_A    0.0000
   9558 O         167.7791  144.7438   33.8323 O.3    1365      M_A    0.0000
   9559 H         167.0951  145.3254   36.1175 H      1365      M_A    0.0000
   9560 H         168.7825  145.3529   36.6454 H      1365      M_A    0.0000
   9561 H         169.5429  144.2049   34.8258 H      1365      M_A    0.0000
   9562 H         168.2259  143.0415   34.8726 H      1365      M_A    0.0000
   9563 C         167.2372  145.9929   34.2106 C.3    1366      M_A    0.0000
   9564 C         168.3224  147.0114   34.5468 C.3    1366      M_A    0.0000
   9565 O         169.0649  147.3561   33.3774 O.3    1366      M_A    0.0000
   9566 H         166.5871  146.3581   33.4084 H      1366      M_A    0.0000
   9567 H         166.6125  145.8346   35.0972 H      1366      M_A    0.0000
   9568 H         167.8761  147.9012   35.0138 H      1366      M_A    0.0000
   9569 H         169.0314  146.6028   35.2776 H      1366      M_A    0.0000
   9570 C         169.7849  148.5586   33.5576 C.3    1367      M_A    0.0000
   9571 C         170.9176  148.4037   34.5682 C.3    1367      M_A    0.0000
   9572 O         171.5869  149.6492   34.7646 O.3    1367      M_A    0.0000
   9573 H         170.1642  148.8969   32.5874 H      1367      M_A    0.0000
   9574 H         169.0851  149.3188   33.9232 H      1367      M_A    0.0000
   9575 H         170.5285  148.0049   35.5161 H      1367      M_A    0.0000
   9576 H         171.6640  147.6820   34.2136 H      1367      M_A    0.0000
   9577 C         170.6812  150.6716   35.1269 C.3    1368      M_A    0.0000
   9578 C         170.7629  151.0112   36.6122 C.3    1368      M_A    0.0000
   9579 O         172.1090  151.3065   36.9847 O.3    1368      M_A    0.0000
   9580 H         170.8731  151.5548   34.5083 H      1368      M_A    0.0000
   9581 H         169.6682  150.3208   34.8986 H      1368      M_A    0.0000
   9582 H         170.0900  151.8483   36.8477 H      1368      M_A    0.0000
   9583 H         170.4298  150.1658   37.2271 H      1368      M_A    0.0000
   9584 C         172.2012  152.5520   37.6459 C.3    1369      M_A    0.0000
   9585 C         173.1902  152.5137   38.8071 C.3    1369      M_A    0.0000
   9586 O         174.4410  153.0815   38.4182 O.3    1369      M_A    0.0000
   9587 H         172.4755  153.3234   36.9183 H      1369      M_A    0.0000
   9588 H         171.2074  152.8016   38.0347 H      1369      M_A    0.0000
   9589 H         172.7700  153.0325   39.6808 H      1369      M_A    0.0000
   9590 H         173.3827  151.4814   39.1250 H      1369      M_A    0.0000
   9591 C         174.5473  153.1852   37.0130 C.3    1370      M_A    0.0000
   9592 C         175.5838  152.2213   36.4430 C.3    1370      M_A    0.0000
   9593 O         174.9594  151.2619   35.5901 O.3    1370      M_A    0.0000
   9594 H         173.5618  153.0152   36.5665 H      1370      M_A    0.0000
   9595 H         174.8475  154.2115   36.7725 H      1370      M_A    0.0000
   9596 H         176.3682  152.7787   35.9110 H      1370      M_A    0.0000
   9597 H         176.0887  151.6685   37.2450 H      1370      M_A    0.0000
   9598 C         173.9226  151.8451   34.8273 C.3    1371      M_A    0.0000
   9599 C         174.1640  151.7036   33.3274 C.3    1371      M_A    0.0000
   9600 O         172.9364  151.8264   32.6091 O.3    1371      M_A    0.0000
   9601 H         172.9678  151.3942   35.1183 H      1371      M_A    0.0000
   9602 H         173.8767  152.9106   35.0801 H      1371      M_A    0.0000
   9603 H         174.9008  152.4465   32.9898 H      1371      M_A    0.0000
   9604 H         174.5871  150.7197   33.0890 H      1371      M_A    0.0000
   9605 C         172.5793  153.1810   32.4232 C.3    1372      M_A    0.0000
   9606 C         171.2526  153.5224   33.0951 C.3    1372      M_A    0.0000
   9607 O         171.4367  153.7138   34.4977 O.3    1372      M_A    0.0000
   9608 H         173.3876  153.8182   32.7976 H      1372      M_A    0.0000
   9609 H         172.4877  153.3605   31.3459 H      1372      M_A    0.0000
   9610 H         170.8069  154.4110   32.6253 H      1372      M_A    0.0000
   9611 H         170.5270  152.7095   32.9669 H      1372      M_A    0.0000
   9612 C         170.2620  153.4056   35.2203 C.3    1373      M_A    0.0000
   9613 C         170.2829  153.9939   36.6280 C.3    1373      M_A    0.0000
   9614 O         169.8667  155.3593   36.6060 O.3    1373      M_A    0.0000
   9615 H         169.3924  153.7600   34.6567 H      1373      M_A    0.0000
   9616 H         170.1876  152.3145   35.2931 H      1373      M_A    0.0000
   9617 H         169.6517  153.3942   37.2994 H      1373      M_A    0.0000
   9618 H         171.2952  153.9659   37.0502 H      1373      M_A    0.0000
   9619 C         168.7343  155.5415   35.7806 C.3    1374      M_A    0.0000
   9620 C         168.7746  154.6472   34.5450 C.3    1374      M_A    0.0000
   9621 O         169.0173  153.2905   34.9170 O.3    1374      M_A    0.0000
   9622 H         167.8294  155.3605   36.3703 H      1374      M_A    0.0000
   9623 H         168.7166  156.5893   35.4594 H      1374      M_A    0.0000
   9624 H         167.8391  154.7444   33.9755 H      1374      M_A    0.0000
   9625 H         169.5813  154.9511   33.8665 H      1374      M_A    0.0000
   9626 C         167.8119  152.6056   35.1905 C.3    1375      M_A    0.0000
   9627 C         167.4394  151.6317   34.0764 C.3    1375      M_A    0.0000
   9628 O         166.9409  152.3379   32.9403 O.3    1375      M_A    0.0000
   9629 H         167.9043  152.0896   36.1521 H      1375      M_A    0.0000
   9630 H         167.0154  153.3519   35.2900 H      1375      M_A    0.0000
   9631 H         168.3058  151.0088   33.8115 H      1375      M_A    0.0000
   9632 H         166.6526  150.9414   34.4053 H      1375      M_A    0.0000
   9633 C         167.9839  152.9667   32.2237 C.3    1376      M_A    0.0000
   9634 C         168.9318  151.9562   31.5844 C.3    1376      M_A    0.0000
   9635 O         168.5462  151.6922   30.2355 O.3    1376      M_A    0.0000
   9636 H         167.5491  153.6324   31.4704 H      1376      M_A    0.0000
   9637 H         168.5498  153.5876   32.9276 H      1376      M_A    0.0000
   9638 H         169.9679  152.3198   31.6402 H      1376      M_A    0.0000
   9639 H         168.9107  151.0017   32.1250 H      1376      M_A    0.0000
   9640 C         169.5933  151.0827   29.5082 C.3    1377      M_A    0.0000
   9641 C         170.1738  149.8760   30.2396 C.3    1377      M_A    0.0000
   9642 O         171.0244  149.1265   29.3721 O.3    1377      M_A    0.0000
   9643 H         169.2235  150.8031   28.5159 H      1377      M_A    0.0000
   9644 H         170.3851  151.8276   29.3691 H      1377      M_A    0.0000
   9645 H         170.7104  150.2015   31.1425 H      1377      M_A    0.0000
   9646 H         169.3772  149.2030   30.5806 H      1377      M_A    0.0000
   9647 C         171.2324  147.8157   29.8574 C.3    1378      M_A    0.0000
   9648 C         172.6846  147.5762   30.2598 C.3    1378      M_A    0.0000
   9649 O         172.7542  147.0012   31.5645 O.3    1378      M_A    0.0000
   9650 H         170.5542  147.6340   30.6980 H      1378      M_A    0.0000
   9651 H         170.9655  147.1143   29.0587 H      1378      M_A    0.0000
   9652 H         173.1847  146.9400   29.5153 H      1378      M_A    0.0000
   9653 H         173.2453  148.5189   30.2859 H      1378      M_A    0.0000
   9654 C         171.4871  146.5520   32.0000 C.3    1379      M_A    0.0000
   9655 C         171.4955  145.0686   32.3575 C.3    1379      M_A    0.0000
   9656 O         170.5626  144.3533   31.5476 O.3    1379      M_A    0.0000
   9657 H         171.1647  147.1618   32.8507 H      1379      M_A    0.0000
   9658 H         170.7729  146.7162   31.1850 H      1379      M_A    0.0000
   9659 H         172.5108  144.6592   32.2544 H      1379      M_A    0.0000
   9660 H         171.2064  144.9156   33.4047 H      1379      M_A    0.0000
   9661 C         170.0032  143.2598   32.2462 C.3    1380      M_A    0.0000
   9662 C         168.4927  143.3968   32.4124 C.3    1380      M_A    0.0000
   9663 O         167.8223  143.0483   31.2012 O.3    1380      M_A    0.0000
   9664 H         170.2609  142.3324   31.7237 H      1380      M_A    0.0000
   9665 H         170.4670  143.2210   33.2385 H      1380      M_A    0.0000
   9666 H         168.1458  142.7792   33.2534 H      1380      M_A    0.0000
   9667 H         168.2166  144.4305   32.6549 H      1380      M_A    0.0000
   9668 C         168.0325  144.0189   30.1960 C.3    1381      M_A    0.0000
   9669 C         166.7240  144.6358   29.7108 C.3    1381      M_A    0.0000
   9670 O         166.2156  145.5552   30.6772 O.3    1381      M_A    0.0000
   9671 H         168.7140  144.7867   30.5775 H      1381      M_A    0.0000
   9672 H         168.5274  143.5269   29.3507 H      1381      M_A    0.0000
   9673 H         166.8721  145.1217   28.7357 H      1381      M_A    0.0000
   9674 H         165.9593  143.8641   29.5574 H      1381      M_A    0.0000
   9675 C         166.9793  145.5312   31.8659 C.3    1382      M_A    0.0000
   9676 C         166.6648  146.7159   32.7745 C.3    1382      M_A    0.0000
   9677 O         166.4028  147.8856   31.9992 O.3    1382      M_A    0.0000
   9678 H         166.8073  144.5806   32.3820 H      1382      M_A    0.0000
   9679 H         168.0385  145.5699   31.5867 H      1382      M_A    0.0000
   9680 H         165.8179  146.4748   33.4331 H      1382      M_A    0.0000
   9681 H         167.5127  146.9415   33.4332 H      1382      M_A    0.0000
   9682 C         165.2011  147.7617   31.2660 C.3    1383      M_A    0.0000
   9683 C         163.9850  147.6200   32.1766 C.3    1383      M_A    0.0000
   9684 O         162.8716  147.1034   31.4478 O.3    1383      M_A    0.0000
   9685 H         165.0980  148.6253   30.6003 H      1383      M_A    0.0000
   9686 H         165.2802  146.8669   30.6382 H      1383      M_A    0.0000
   9687 H         164.2288  146.9830   33.0389 H      1383      M_A    0.0000
   9688 H         163.6863  148.5928   32.5869 H      1383      M_A    0.0000
   9689 C         162.3646  148.0552   30.5345 C.3    1384      M_A    0.0000
   9690 C         163.3632  149.1756   30.2595 C.3    1384      M_A    0.0000
   9691 O         164.3899  148.7251   29.3758 O.3    1384      M_A    0.0000
   9692 H         162.0781  147.5449   29.6088 H      1384      M_A    0.0000
   9693 H         161.4564  148.4885   30.9688 H      1384      M_A    0.0000
   9694 H         162.8439  150.0556   29.8535 H      1384      M_A    0.0000
   9695 H         163.8489  149.5050   31.1865 H      1384      M_A    0.0000
   9696 C         165.6421  149.2900   29.7071 C.3    1385      M_A    0.0000
   9697 C         166.7813  148.2850   29.5638 C.3    1385      M_A    0.0000
   9698 O         167.0758  148.0555   28.1860 O.3    1385      M_A    0.0000
   9699 H         165.8127  150.1727   29.0817 H      1385      M_A    0.0000
   9700 H         165.5950  149.6262   30.7492 H      1385      M_A    0.0000
   9701 H         167.6688  148.6370   30.1091 H      1385      M_A    0.0000
   9702 H         166.5104  147.3187   30.0072 H      1385      M_A    0.0000
   9703 C         168.1058  147.1008   28.0293 C.3    1386      M_A    0.0000
   9704 C         169.2820  147.3667   28.9641 C.3    1386      M_A    0.0000
   9705 O         169.6925  146.1603   29.6076 O.3    1386      M_A    0.0000
   9706 H         167.6923  146.0994   28.1891 H      1386      M_A    0.0000
   9707 H         168.4582  147.1524   26.9927 H      1386      M_A    0.0000
   9708 H         170.1123  147.8260   28.4084 H      1386      M_A    0.0000
   9709 H         169.0053  148.0805   29.7501 H      1386      M_A    0.0000
   9710 C         168.8316  145.8258   30.6771 C.3    1387      M_A    0.0000
   9711 C         169.2617  146.4802   31.9866 C.3    1387      M_A    0.0000
   9712 O         169.0760  145.5813   33.0800 O.3    1387      M_A    0.0000
   9713 H         167.8068  146.1074   30.4124 H      1387      M_A    0.0000
   9714 H         168.8548  144.7370   30.8005 H      1387      M_A    0.0000
   9715 H         170.3065  146.8158   31.9180 H      1387      M_A    0.0000
   9716 H         168.6632  147.3763   32.1928 H      1387      M_A    0.0000
   9717 C         170.2691  145.4105   33.8175 C.3    1388      M_A    0.0000
   9718 C         170.4765  146.5240   34.8399 C.3    1388      M_A    0.0000
   9719 O         171.1393  146.0213   36.0000 O.3    1388      M_A    0.0000
   9720 H         170.2529  144.4279   34.3011 H      1388      M_A    0.0000
   9721 H         171.1065  145.4180   33.1104 H      1388      M_A    0.0000
   9722 H         171.0370  147.3549   34.3877 H      1388      M_A    0.0000
   9723 H         169.5157  146.9418   35.1657 H      1388      M_A    0.0000
   9724 C         172.1327  145.0758   35.6592 C.3    1389      M_A    0.0000
   9725 C         172.1174  143.8663   36.5893 C.3    1389      M_A    0.0000
   9726 O         172.9420  142.8239   36.0684 O.3    1389      M_A    0.0000
   9727 H         171.9953  144.7736   34.6155 H      1389      M_A    0.0000
   9728 H         173.1082  145.5695   35.7356 H      1389      M_A    0.0000
   9729 H         172.4355  144.1606   37.5998 H      1389      M_A    0.0000
   9730 H         171.1024  143.4623   36.6912 H      1389      M_A    0.0000
   9731 C         173.5887  142.1104   37.1026 C.3    1390      M_A    0.0000
   9732 C         172.6629  141.8521   38.2876 C.3    1390      M_A    0.0000
   9733 O         172.6424  140.4622   38.6131 O.3    1390      M_A    0.0000
   9734 H         173.9829  141.1725   36.6972 H      1390      M_A    0.0000
   9735 H         174.4415  142.7089   37.4427 H      1390      M_A    0.0000
   9736 H         172.9717  142.4602   39.1500 H      1390      M_A    0.0000
   9737 H         171.6332  142.1499   38.0536 H      1390      M_A    0.0000
   9738 C         171.6569  140.1728   39.5836 C.3    1391      M_A    0.0000
   9739 C         172.1304  139.1269   40.5885 C.3    1391      M_A    0.0000
   9740 O         172.5028  139.7475   41.8190 O.3    1391      M_A    0.0000
   9741 H         171.3671  141.1015   40.0866 H      1391      M_A    0.0000
   9742 H         170.7728  139.7887   39.0620 H      1391      M_A    0.0000
   9743 H         171.3495  138.3685   40.7434 H      1391      M_A    0.0000
   9744 H         173.0102  138.5905   40.2117 H      1391      M_A    0.0000
   9745 C         171.3741  140.0121   42.6271 C.3    1392      M_A    0.0000
   9746 C         171.7056  139.9473   44.1151 C.3    1392      M_A    0.0000
   9747 O         172.4562  141.0952   44.5110 O.3    1392      M_A    0.0000
   9748 H         170.9618  140.9899   42.3561 H      1392      M_A    0.0000
   9749 H         170.6128  139.2569   42.4003 H      1392      M_A    0.0000
   9750 H         170.7832  139.8496   44.7055 H      1392      M_A    0.0000
   9751 H         172.3130  139.0628   44.3439 H      1392      M_A    0.0000
   9752 C         172.9309  140.9709   45.8362 C.3    1393      M_A    0.0000
   9753 C         174.4217  141.2781   45.9432 C.3    1393      M_A    0.0000
   9754 O         175.1021  140.2243   46.6247 O.3    1393      M_A    0.0000
   9755 H         172.3444  141.6264   46.4889 H      1393      M_A    0.0000
   9756 H         172.7574  139.9386   46.1609 H      1393      M_A    0.0000
   9757 H         174.8469  141.4478   44.9435 H      1393      M_A    0.0000
   9758 H         174.5925  142.2009   46.5114 H      1393      M_A    0.0000
   9759 C         176.1999  139.7469   45.8739 C.3    1394      M_A    0.0000
   9760 C         177.4514  140.5940   46.0844 C.3    1394      M_A    0.0000
   9761 O         177.9841  140.3834   47.3920 O.3    1394      M_A    0.0000
   9762 H         176.3831  138.6992   46.1354 H      1394      M_A    0.0000
   9763 H         175.9233  139.7804   44.8139 H      1394      M_A    0.0000
   9764 H         178.1968  140.3694   45.3080 H      1394      M_A    0.0000
   9765 H         177.2221  141.6629   45.9913 H      1394      M_A    0.0000
   9766 C         179.3372  140.7833   47.4698 C.3    1395      M_A    0.0000
   9767 C         179.9713  140.4066   48.8055 C.3    1395      M_A    0.0000
   9768 O         181.3726  140.1837   48.6492 O.3    1395      M_A    0.0000
   9769 H         179.8887  140.3430   46.6323 H      1395      M_A    0.0000
   9770 H         179.3738  141.8726   47.3546 H      1395      M_A    0.0000
   9771 H         179.7715  141.1870   49.5539 H      1395      M_A    0.0000
   9772 H         179.5336  139.4814   49.2008 H      1395      M_A    0.0000
   9773 C         181.7150  139.9736   47.2944 C.3    1396      M_A    0.0000
   9774 C         182.2485  141.2413   46.6338 C.3    1396      M_A    0.0000
   9775 O         183.1437  140.9133   45.5714 O.3    1396      M_A    0.0000
   9776 H         182.4439  139.1586   47.2323 H      1396      M_A    0.0000
   9777 H         180.8113  139.6511   46.7646 H      1396      M_A    0.0000
   9778 H         181.4148  141.8629   46.2767 H      1396      M_A    0.0000
   9779 H         182.8041  141.8552   47.3538 H      1396      M_A    0.0000
   9780 C         183.7672  139.6637   45.7875 C.3    1397      M_A    0.0000
   9781 C         185.1571  139.5996   45.1612 C.3    1397      M_A    0.0000
   9782 O         186.1167  140.2337   46.0067 O.3    1397      M_A    0.0000
   9783 H         183.8092  139.4668   46.8641 H      1397      M_A    0.0000
   9784 H         183.1376  138.8900   45.3334 H      1397      M_A    0.0000
   9785 H         185.4331  138.5552   44.9562 H      1397      M_A    0.0000
   9786 H         185.1766  140.1188   44.1949 H      1397      M_A    0.0000
   9787 C         187.3720  140.3495   45.3682 C.3    1398      M_A    0.0000
   9788 C         188.5186  139.9039   46.2710 C.3    1398      M_A    0.0000
   9789 O         189.6878  139.6329   45.4982 O.3    1398      M_A    0.0000
   9790 H         187.3543  139.7722   44.4377 H      1398      M_A    0.0000
   9791 H         187.5189  141.4026   45.1022 H      1398      M_A    0.0000
   9792 H         188.7148  140.6657   47.0393 H      1398      M_A    0.0000
   9793 H         188.2597  138.9834   46.8089 H      1398      M_A    0.0000
   9794 C         190.3915  140.8193   45.1914 C.3    1399      M_A    0.0000
   9795 C         191.0064  141.4593   46.4325 C.3    1399      M_A    0.0000
   9796 O         192.3577  141.0304   46.5994 O.3    1399      M_A    0.0000
   9797 H         191.1573  140.5966   44.4408 H      1399      M_A    0.0000
   9798 H         189.6829  141.5249   44.7427 H      1399      M_A    0.0000
   9799 H         190.9398  142.5549   46.3671 H      1399      M_A    0.0000
   9800 H         190.4561  141.1707   47.3367 H      1399      M_A    0.0000
   9801 C         193.2713  142.0301   46.1959 C.3    1400      M_A    0.0000
   9802 C         194.4252  142.1853   47.1821 C.3    1400      M_A    0.0000
   9803 O         195.5873  141.5084   46.7032 O.3    1400      M_A    0.0000
   9804 H         193.6388  141.7940   45.1915 H      1400      M_A    0.0000
   9805 H         192.7269  142.9794   46.1350 H      1400      M_A    0.0000
   9806 H         194.6291  143.2504   47.3631 H      1400      M_A    0.0000
   9807 H         194.1700  141.7504   48.1565 H      1400      M_A    0.0000
   9808 C         196.4212  141.0965   47.7670 C.3    1401      M_A    0.0000
   9809 C         197.8544  140.8440   47.3085 C.3    1401      M_A    0.0000
   9810 O         198.7703  141.6259   48.0752 O.3    1401      M_A    0.0000
   9811 H         196.3871  141.8507   48.5605 H      1401      M_A    0.0000
   9812 H         196.0108  140.1662   48.1762 H      1401      M_A    0.0000
   9813 H         198.0908  139.7722   47.3746 H      1401      M_A    0.0000
   9814 H         197.9848  141.1239   46.2557 H      1401      M_A    0.0000
   9815 C         200.0182  140.9767   48.2096 C.3    1402      M_A    0.0000
   9816 C         201.1874  141.9172   47.9327 C.3    1402      M_A    0.0000
   9817 O         202.0417  142.0028   49.0731 O.3    1402      M_A    0.0000
   9818 H         200.0891  140.5427   49.2127 H      1402      M_A    0.0000
   9819 H         200.0483  140.1517   47.4886 H      1402      M_A    0.0000
   9820 H         201.7404  141.5833   47.0429 H      1402      M_A    0.0000
   9821 H         200.8317  142.9313   47.7118 H      1402      M_A    0.0000
   9822 C         203.3911  142.1864   48.6958 C.3    1403      M_A    0.0000
   9823 C         204.0671  143.2922   49.5011 C.3    1403      M_A    0.0000
   9824 O         204.9010  142.7339   50.5163 O.3    1403      M_A    0.0000
   9825 H         203.9249  141.2361   48.8038 H      1403      M_A    0.0000
   9826 H         203.4103  142.4585   47.6343 H      1403      M_A    0.0000
   9827 H         204.6382  143.9531   48.8332 H      1403      M_A    0.0000
   9828 H         203.3228  143.9261   49.9991 H      1403      M_A    0.0000
   9829 C         204.1361  142.1851   51.5701 C.3    1404      M_A    0.0000
   9830 C         204.8894  142.2043   52.8968 C.3    1404      M_A    0.0000
   9831 O         204.1785  142.9758   53.8649 O.3    1404      M_A    0.0000
   9832 H         203.1889  142.7299   51.6454 H      1404      M_A    0.0000
   9833 H         203.9013  141.1465   51.3107 H      1404      M_A    0.0000
   9834 H         205.0605  141.1776   53.2510 H      1404      M_A    0.0000
   9835 H         205.8811  142.6587   52.7786 H      1404      M_A    0.0000
   9836 C         205.0362  143.4399   54.8876 C.3    1405      M_A    0.0000
   9837 C         204.6584  142.8755   56.2539 C.3    1405      M_A    0.0000
   9838 O         205.7641  142.1818   56.8320 O.3    1405      M_A    0.0000
   9839 H         206.0702  143.1886   54.6283 H      1405      M_A    0.0000
   9840 H         204.9593  144.5327   54.9218 H      1405      M_A    0.0000
   9841 H         204.3034  143.6813   56.9124 H      1405      M_A    0.0000
   9842 H         203.8306  142.1606   56.1681 H      1405      M_A    0.0000
   9843 C         205.3331  141.1643   57.7127 C.3    1406      M_A    0.0000
   9844 C         206.5042  140.4198   58.3470 C.3    1406      M_A    0.0000
   9845 O         206.1391  139.9134   59.6308 O.3    1406      M_A    0.0000
   9846 H         204.6840  141.6046   58.4771 H      1406      M_A    0.0000
   9847 H         204.7308  140.4526   57.1364 H      1406      M_A    0.0000
   9848 H         206.8466  139.6139   57.6819 H      1406      M_A    0.0000
   9849 H         207.3631  141.0875   58.4893 H      1406      M_A    0.0000
   9850 C         207.0234  138.8967   60.0564 C.3    1407      M_A    0.0000
   9851 C         206.5244  138.1911   61.3138 C.3    1407      M_A    0.0000
   9852 O         206.7599  136.7858   61.2260 O.3    1407      M_A    0.0000
   9853 H         207.1716  138.1857   59.2365 H      1407      M_A    0.0000
   9854 H         207.9926  139.3612   60.2714 H      1407      M_A    0.0000
   9855 H         207.0022  138.6216   62.2056 H      1407      M_A    0.0000
   9856 H         205.4445  138.3357   61.4428 H      1407      M_A    0.0000
   9857 C         208.0715  136.5081   60.7795 C.3    1408      M_A    0.0000
   9858 C         208.9556  135.9639   61.8977 C.3    1408      M_A    0.0000
   9859 O         208.6626  134.5883   62.1427 O.3    1408      M_A    0.0000
   9860 H         208.0220  135.8082   59.9386 H      1408      M_A    0.0000
   9861 H         208.5059  137.4431   60.4074 H      1408      M_A    0.0000
   9862 H         210.0164  136.1083   61.6472 H      1408      M_A    0.0000
   9863 H         208.7833  136.5083   62.8345 H      1408      M_A    0.0000
   9864 C         207.3968  134.4293   62.7504 C.3    1409      M_A    0.0000
   9865 C         207.3794  133.2742   63.7471 C.3    1409      M_A    0.0000
   9866 O         207.0802  133.7498   65.0594 O.3    1409      M_A    0.0000
   9867 H         207.1105  135.3707   63.2313 H      1409      M_A    0.0000
   9868 H         206.6663  134.2258   61.9591 H      1409      M_A    0.0000
   9869 H         206.6602  132.5069   63.4262 H      1409      M_A    0.0000
   9870 H         208.3578  132.7797   63.7921 H      1409      M_A    0.0000
   9871 C         206.4395  132.7579   65.8355 C.3    1410      M_A    0.0000
   9872 C         207.1889  131.4292   65.8013 C.3    1410      M_A    0.0000
   9873 O         207.8769  131.2108   67.0329 O.3    1410      M_A    0.0000
   9874 H         206.3292  133.1232   66.8621 H      1410      M_A    0.0000
   9875 H         205.4334  132.6081   65.4271 H      1410      M_A    0.0000
   9876 H         206.4933  130.6068   65.5806 H      1410      M_A    0.0000
   9877 H         207.9387  131.4219   65.0004 H      1410      M_A    0.0000
   9878 C         207.4990  129.9853   67.6263 C.3    1411      M_A    0.0000
   9879 C         207.7870  128.7943   66.7170 C.3    1411      M_A    0.0000
   9880 O         207.7743  127.5787   67.4654 O.3    1411      M_A    0.0000
   9881 H         208.0116  129.8810   68.5885 H      1411      M_A    0.0000
   9882 H         206.4223  130.0259   67.8270 H      1411      M_A    0.0000
   9883 H         207.0616  128.7631   65.8913 H      1411      M_A    0.0000
   9884 H         208.7774  128.8845   66.2537 H      1411      M_A    0.0000
   9885 C         206.5868  127.4484   68.2202 C.3    1412      M_A    0.0000
   9886 C         205.5048  126.6859   67.4612 C.3    1412      M_A    0.0000
   9887 O         205.8047  125.2906   67.4290 O.3    1412      M_A    0.0000
   9888 H         206.8203  126.9602   69.1723 H      1412      M_A    0.0000
   9889 H         206.2186  128.4558   68.4458 H      1412      M_A    0.0000
   9890 H         204.5203  126.8730   67.9137 H      1412      M_A    0.0000
   9891 H         205.4368  127.0313   66.4220 H      1412      M_A    0.0000
   9892 C         204.9552  124.5994   66.5361 C.3    1413      M_A    0.0000
   9893 C         204.8673  123.1115   66.8628 C.3    1413      M_A    0.0000
   9894 O         203.5245  122.7480   67.1833 O.3    1413      M_A    0.0000
   9895 H         203.9648  125.0666   66.5512 H      1413      M_A    0.0000
   9896 H         205.3617  124.7169   65.5250 H      1413      M_A    0.0000
   9897 H         205.2536  122.5153   66.0237 H      1413      M_A    0.0000
   9898 H         205.4910  122.8627   67.7305 H      1413      M_A    0.0000
   9899 C         203.4301  121.3855   67.5459 C.3    1414      M_A    0.0000
   9900 C         202.1675  121.0916   68.3507 C.3    1414      M_A    0.0000
   9901 O         201.2568  120.3045   67.5833 O.3    1414      M_A    0.0000
   9902 H         203.4738  120.7708   66.6404 H      1414      M_A    0.0000
   9903 H         204.3057  121.1379   68.1570 H      1414      M_A    0.0000
   9904 H         202.4273  120.5943   69.2963 H      1414      M_A    0.0000
   9905 H         201.6505  122.0203   68.6229 H      1414      M_A    0.0000
   9906 C         199.9348  120.4232   68.0683 C.3    1415      M_A    0.0000
   9907 C         199.4251  119.1175   68.6713 C.3    1415      M_A    0.0000
   9908 O         198.3689  119.3726   69.5971 O.3    1415      M_A    0.0000
   9909 H         199.8939  121.2384   68.7986 H      1415      M_A    0.0000
   9910 H         199.2904  120.7001   67.2261 H      1415      M_A    0.0000
   9911 H         199.1017  118.4323   67.8745 H      1415      M_A    0.0000
   9912 H         200.2231  118.5996   69.2179 H      1415      M_A    0.0000
   9913 C         197.1243  119.4988   68.9400 C.3    1416      M_A    0.0000
   9914 C         195.9493  119.2829   69.8892 C.3    1416      M_A    0.0000
   9915 O         194.7125  119.5179   69.2162 O.3    1416      M_A    0.0000
   9916 H         197.0707  120.4828   68.4621 H      1416      M_A    0.0000
   9917 H         197.0834  118.7428   68.1475 H      1416      M_A    0.0000
   9918 H         195.9866  118.2698   70.3149 H      1416      M_A    0.0000
   9919 H         195.9982  119.9759   70.7383 H      1416      M_A    0.0000
   9920 C         193.7285  118.5790   69.5996 C.3    1417      M_A    0.0000
   9921 C         192.9661  118.0241   68.4001 C.3    1417      M_A    0.0000
   9922 O         192.6005  116.6627   68.6256 O.3    1417      M_A    0.0000
   9923 H         194.2047  117.7755   70.1714 H      1417      M_A    0.0000
   9924 H         193.0209  119.0856   70.2660 H      1417      M_A    0.0000
   9925 H         192.0836  118.6457   68.1906 H      1417      M_A    0.0000
   9926 H         193.5847  118.0524   67.4944 H      1417      M_A    0.0000
   9927 C         192.0576  116.0733   67.4617 C.3    1418      M_A    0.0000
   9928 C         191.2355  114.8276   67.7789 C.3    1418      M_A    0.0000
   9929 O         189.8460  115.0780   67.5684 O.3    1418      M_A    0.0000
   9930 H         191.4565  116.8190   66.9306 H      1418      M_A    0.0000
   9931 H         192.8902  115.7914   66.8070 H      1418      M_A    0.0000
   9932 H         191.5849  113.9783   67.1743 H      1418      M_A    0.0000
   9933 H         191.3607  114.5312   68.8278 H      1418      M_A    0.0000
   9934 C         189.0514  114.0039   68.0286 C.3    1419      M_A    0.0000
   9935 C         187.5681  114.3601   68.0616 C.3    1419      M_A    0.0000
   9936 O         186.8158  113.4452   67.2648 O.3    1419      M_A    0.0000
   9937 H         189.2336  113.1281   67.3966 H      1419      M_A    0.0000
   9938 H         189.3786  113.7536   69.0442 H      1419      M_A    0.0000
   9939 H         187.2052  114.3785   69.0994 H      1419      M_A    0.0000
   9940 H         187.3967  115.3656   67.6575 H      1419      M_A    0.0000
   9941 C         185.4716  113.8599   67.1310 C.3    1420      M_A    0.0000
   9942 C         184.4989  112.8665   67.7596 C.3    1420      M_A    0.0000
   9943 O         184.0836  113.3196   69.0480 O.3    1420      M_A    0.0000
   9944 H         185.3593  114.8560   67.5722 H      1420      M_A    0.0000
   9945 H         185.2499  113.9445   66.0610 H      1420      M_A    0.0000
   9946 H         183.6376  112.7065   67.0952 H      1420      M_A    0.0000
   9947 H         184.9715  111.8853   67.8930 H      1420      M_A    0.0000
   9948 C         182.9329  112.6303   69.4926 C.3    1421      M_A    0.0000
   9949 C         182.5007  113.0742   70.8870 C.3    1421      M_A    0.0000
   9950 O         181.7554  114.2898   70.8167 O.3    1421      M_A    0.0000
   9951 H         182.1272  112.7734   68.7647 H      1421      M_A    0.0000
   9952 H         183.1699  111.5606   69.5187 H      1421      M_A    0.0000
   9953 H         181.9215  112.2779   71.3762 H      1421      M_A    0.0000
   9954 H         183.3719  113.2596   71.5276 H      1421      M_A    0.0000
   9955 C         180.3732  114.0408   70.6611 C.3    1422      M_A    0.0000
   9956 C         179.7588  113.4133   71.9088 C.3    1422      M_A    0.0000
   9957 O         178.9399  114.3607   72.5941 O.3    1422      M_A    0.0000
   9958 H         179.8686  114.9772   70.4002 H      1422      M_A    0.0000
   9959 H         180.2478  113.3508   69.8188 H      1422      M_A    0.0000
   9960 H         179.1884  112.5128   71.6392 H      1422      M_A    0.0000
   9961 H         180.5384  113.0862   72.6082 H      1422      M_A    0.0000
   9962 C         177.6034  113.9129   72.6935 C.3    1423      M_A    0.0000
   9963 C         177.5187  112.4128   72.9595 C.3    1423      M_A    0.0000
   9964 O         176.8755  112.1616   74.2089 O.3    1423      M_A    0.0000
   9965 H         177.0929  114.4827   73.4773 H      1423      M_A    0.0000
   9966 H         177.1026  114.1335   71.7439 H      1423      M_A    0.0000
   9967 H         176.9969  111.9097   72.1327 H      1423      M_A    0.0000
   9968 H         178.5195  111.9659   73.0095 H      1423      M_A    0.0000
   9969 C         175.7900  113.0418   74.4180 C.3    1424      M_A    0.0000
   9970 C         174.5001  112.5220   73.7900 C.3    1424      M_A    0.0000
   9971 O         174.0994  111.2995   74.4089 O.3    1424      M_A    0.0000
   9972 H         175.6669  113.2082   75.4935 H      1424      M_A    0.0000
   9973 H         176.0440  114.0048   73.9604 H      1424      M_A    0.0000
   9974 H         173.7101  113.2834   73.8603 H      1424      M_A    0.0000
   9975 H         174.6381  112.3190   72.7207 H      1424      M_A    0.0000
   9976 C         173.9005  111.4641   75.7982 C.3    1425      M_A    0.0000
   9977 C         173.8195  110.1270   76.5290 C.3    1425      M_A    0.0000
   9978 O         175.1265  109.5955   76.7462 O.3    1425      M_A    0.0000
   9979 H         174.7047  112.0877   76.2030 H      1425      M_A    0.0000
   9980 H         172.9578  112.0044   75.9420 H      1425      M_A    0.0000
   9981 H         173.2732  110.2445   77.4758 H      1425      M_A    0.0000
   9982 H         173.2593  109.3907   75.9393 H      1425      M_A    0.0000
   9983 C         175.1848  108.2198   76.4283 C.3    1426      M_A    0.0000
   9984 C         175.3813  107.9838   74.9337 C.3    1426      M_A    0.0000
   9985 O         175.6933  106.6141   74.6801 O.3    1426      M_A    0.0000
   9986 H         175.9855  107.7520   77.0109 H      1426      M_A    0.0000
   9987 H         174.2385  107.7620   76.7382 H      1426      M_A    0.0000
   9988 H         174.4860  108.2994   74.3788 H      1426      M_A    0.0000
   9989 H         176.2120  108.5872   74.5468 H      1426      M_A    0.0000
   9990 C         175.0722  105.7597   75.6187 C.3    1427      M_A    0.0000
   9991 C         173.5944  105.5423   75.3071 C.3    1427      M_A    0.0000
   9992 O         173.2763  104.1510   75.3354 O.3    1427      M_A    0.0000
   9993 H         175.6138  104.8083   75.6491 H      1427      M_A    0.0000
   9994 H         175.1615  106.2238   76.6076 H      1427      M_A    0.0000
   9995 H         172.9703  106.1096   76.0126 H      1427      M_A    0.0000
   9996 H         173.3451  105.9160   74.3061 H      1427      M_A    0.0000
   9997 C         173.0640  103.6957   76.6563 C.3    1428      M_A    0.0000
   9998 C         171.9572  102.6481   76.7315 C.3    1428      M_A    0.0000
   9999 O         172.5136  101.3339   76.7662 O.3    1428      M_A    0.0000
  10000 H         174.0060  103.3049   77.0554 H      1428      M_A    0.0000
  10001 H         172.7774  104.5587   77.2682 H      1428      M_A    0.0000
  10002 H         171.3170  102.8345   77.6057 H      1428      M_A    0.0000
  10003 H         171.3027  102.7046   75.8527 H      1428      M_A    0.0000
  10004 C         173.0820  100.9798   75.5218 C.3    1429      M_A    0.0000
  10005 C         173.5079   99.5152   75.4811 C.3    1429      M_A    0.0000
  10006 O         172.3790   98.6718   75.2527 O.3    1429      M_A    0.0000
  10007 H         172.3657  101.2055   74.7246 H      1429      M_A    0.0000
  10008 H         173.9643  101.6102   75.3628 H      1429      M_A    0.0000
  10009 H         174.2805   99.3659   74.7132 H      1429      M_A    0.0000
  10010 H         173.9580   99.2106   76.4342 H      1429      M_A    0.0000
  10011 C         171.5263   98.6327   76.3789 C.3    1430      M_A    0.0000
  10012 C         171.2999   97.2088   76.8784 C.3    1430      M_A    0.0000
  10013 O         171.6023   97.1127   78.2702 O.3    1430      M_A    0.0000
  10014 H         171.9465   99.2661   77.1674 H      1430      M_A    0.0000
  10015 H         170.5618   99.0634   76.0865 H      1430      M_A    0.0000
  10016 H         170.2672   96.8935   76.6708 H      1430      M_A    0.0000
  10017 H         171.9504   96.4998   76.3512 H      1430      M_A    0.0000
  10018 C         171.3663   95.8091   78.7619 C.3    1431      M_A    0.0000
  10019 C         172.3001   94.7800   78.1317 C.3    1431      M_A    0.0000
  10020 O         172.2727   93.5597   78.8720 O.3    1431      M_A    0.0000
  10021 H         171.4638   95.8155   79.8528 H      1431      M_A    0.0000
  10022 H         170.3307   95.5412   78.5233 H      1431      M_A    0.0000
  10023 H         172.0283   94.6153   77.0791 H      1431      M_A    0.0000
  10024 H         173.3366   95.1397   78.1295 H      1431      M_A    0.0000
  10025 C         170.9917   93.3130   79.4152 C.3    1432      M_A    0.0000
  10026 C         170.6015   91.8409   79.3201 C.3    1432      M_A    0.0000
  10027 O         170.3034   91.3175   80.6143 O.3    1432      M_A    0.0000
  10028 H         170.9707   93.6612   80.4534 H      1432      M_A    0.0000
  10029 H         170.2657   93.9093   78.8508 H      1432      M_A    0.0000
  10030 H         169.7519   91.7171   78.6332 H      1432      M_A    0.0000
  10031 H         171.4227   91.2432   78.9052 H      1432      M_A    0.0000
  10032 C         170.7227   89.9738   80.7380 C.3    1433      M_A    0.0000
  10033 C         170.0188   89.2560   81.8858 C.3    1433      M_A    0.0000
  10034 O         169.8401   87.8737   81.5772 O.3    1433      M_A    0.0000
  10035 H         170.5542   89.4579   79.7867 H      1433      M_A    0.0000
  10036 H         171.8020   89.9737   80.9285 H      1433      M_A    0.0000
  10037 H         170.5846   89.3874   82.8194 H      1433      M_A    0.0000
  10038 H         169.0246   89.6837   82.0655 H      1433      M_A    0.0000
  10039 C         170.6916   87.0561   82.3540 C.3    1434      M_A    0.0000
  10040 C         170.3042   85.5825   82.2720 C.3    1434      M_A    0.0000
  10041 O         171.4653   84.7681   82.1088 O.3    1434      M_A    0.0000
  10042 H         171.7270   87.2111   82.0323 H      1434      M_A    0.0000
  10043 H         170.6156   87.3851   83.3967 H      1434      M_A    0.0000
  10044 H         169.7329   85.2901   83.1647 H      1434      M_A    0.0000
  10045 H         169.6488   85.3962   81.4121 H      1434      M_A    0.0000
  10046 C         171.6610   83.9179   83.2204 C.3    1435      M_A    0.0000
  10047 C         172.0734   82.5100   82.8008 C.3    1435      M_A    0.0000
  10048 O         173.1453   82.0383   83.6171 O.3    1435      M_A    0.0000
  10049 H         172.4061   84.3661   83.8863 H      1435      M_A    0.0000
  10050 H         170.7154   83.8608   83.7717 H      1435      M_A    0.0000
  10051 H         171.2088   81.8322   82.8451 H      1435      M_A    0.0000
  10052 H         172.4222   82.4968   81.7606 H      1435      M_A    0.0000
  10053 C         173.0000   80.6655   83.9191 C.3    1436      M_A    0.0000
  10054 C         173.0320   79.7955   82.6660 C.3    1436      M_A    0.0000
  10055 O         173.5645   78.5054   82.9658 O.3    1436      M_A    0.0000
  10056 H         173.7831   80.3701   84.6255 H      1436      M_A    0.0000
  10057 H         172.0342   80.5309   84.4195 H      1436      M_A    0.0000
  10058 H         172.0255   79.7212   82.2298 H      1436      M_A    0.0000
  10059 H         173.6701   80.2429   81.8937 H      1436      M_A    0.0000
  10060 C         173.2228   78.0963   84.2746 C.3    1437      M_A    0.0000
  10061 C         172.6637   76.6769   84.3048 C.3    1437      M_A    0.0000
  10062 O         173.6290   75.7700   84.8373 O.3    1437      M_A    0.0000
  10063 H         174.1036   78.1880   84.9190 H      1437      M_A    0.0000
  10064 H         172.4605   78.7859   84.6550 H      1437      M_A    0.0000
  10065 H         171.7283   76.6497   84.8821 H      1437      M_A    0.0000
  10066 H         172.4120   76.3325   83.2940 H      1437      M_A    0.0000
  10067 C         174.7042   75.5743   83.9415 C.3    1438      M_A    0.0000
  10068 C         175.7507   74.6154   84.5013 C.3    1438      M_A    0.0000
  10069 O         175.4423   73.2699   84.1373 O.3    1438      M_A    0.0000
  10070 H         174.3111   75.2154   82.9843 H      1438      M_A    0.0000
  10071 H         175.1750   76.5477   83.7624 H      1438      M_A    0.0000
  10072 H         176.7536   74.9035   84.1546 H      1438      M_A    0.0000
  10073 H         175.7787   74.6610   85.5972 H      1438      M_A    0.0000
  10074 C         176.5543   72.4171   84.3189 C.3    1439      M_A    0.0000
  10075 C         177.2137   72.6156   85.6805 C.3    1439      M_A    0.0000
  10076 O         176.8324   71.5732   86.5781 O.3    1439      M_A    0.0000
  10077 H         176.2343   71.3786   84.1824 H      1439      M_A    0.0000
  10078 H         177.2851   72.6446   83.5345 H      1439      M_A    0.0000
  10079 H         178.3064   72.6675   85.5690 H      1439      M_A    0.0000
  10080 H         176.9046   73.5669   86.1315 H      1439      M_A    0.0000
  10081 C         177.9538   71.0256   87.2411 C.3    1440      M_A    0.0000
  10082 C         177.6176   70.5718   88.6586 C.3    1440      M_A    0.0000
  10083 O         177.7904   69.1606   88.7865 O.3    1440      M_A    0.0000
  10084 H         178.3522   70.1977   86.6450 H      1440      M_A    0.0000
  10085 H         178.7273   71.8004   87.2909 H      1440      M_A    0.0000
  10086 H         178.2333   71.1178   89.3878 H      1440      M_A    0.0000
  10087 H         176.5731   70.7987   88.9061 H      1440      M_A    0.0000
  10088 C         177.2429   68.6801   89.9974 C.3    1441      M_A    0.0000
  10089 C         177.7118   67.2639   90.3175 C.3    1441      M_A    0.0000
  10090 O         178.3019   67.2136   91.6164 O.3    1441      M_A    0.0000
  10091 H         177.4992   69.3735   90.8055 H      1441      M_A    0.0000
  10092 H         176.1515   68.6779   89.8963 H      1441      M_A    0.0000
  10093 H         176.8732   66.5579   90.2317 H      1441      M_A    0.0000
  10094 H         178.4705   66.9297   89.5988 H      1441      M_A    0.0000
  10095 C         178.3780   65.8876   92.0990 C.3    1442      M_A    0.0000
  10096 C         178.8510   64.9122   91.0253 C.3    1442      M_A    0.0000
  10097 O         179.8899   64.0747   91.5326 O.3    1442      M_A    0.0000
  10098 H         179.0369   65.8629   92.9735 H      1442      M_A    0.0000
  10099 H         177.3761   65.5916   92.4304 H      1442      M_A    0.0000
  10100 H         178.0042   64.3178   90.6529 H      1442      M_A    0.0000
  10101 H         179.2556   65.4488   90.1581 H      1442      M_A    0.0000
  10102 C         179.8419   62.7850   90.9572 C.3    1443      M_A    0.0000
  10103 C         180.8526   61.8348   91.5926 C.3    1443      M_A    0.0000
  10104 O         180.2582   60.5593   91.8326 O.3    1443      M_A    0.0000
  10105 H         178.8228   62.3931   91.0430 H      1443      M_A    0.0000
  10106 H         180.0703   62.8834   89.8897 H      1443      M_A    0.0000
  10107 H         181.7439   61.7469   90.9548 H      1443      M_A    0.0000
  10108 H         181.2017   62.2215   92.5582 H      1443      M_A    0.0000
  10109 C         179.3095   60.6193   92.8782 C.3    1444      M_A    0.0000
  10110 C         178.7476   59.2434   93.2233 C.3    1444      M_A    0.0000
  10111 O         179.6636   58.5205   94.0456 O.3    1444      M_A    0.0000
  10112 H         179.7714   61.0885   93.7534 H      1444      M_A    0.0000
  10113 H         178.4875   61.2661   92.5507 H      1444      M_A    0.0000
  10114 H         177.7672   59.3451   93.7106 H      1444      M_A    0.0000
  10115 H         178.5806   58.6488   92.3164 H      1444      M_A    0.0000
  10116 C         181.0034   58.7794   93.6786 C.3    1445      M_A    0.0000
  10117 C         181.6870   57.5469   93.0939 C.3    1445      M_A    0.0000
  10118 O         181.6972   57.6095   91.6678 O.3    1445      M_A    0.0000
  10119 H         181.0251   59.6160   92.9720 H      1445      M_A    0.0000
  10120 H         181.5451   59.0917   94.5788 H      1445      M_A    0.0000
  10121 H         182.7053   57.4505   93.4972 H      1445      M_A    0.0000
  10122 H         181.1548   56.6307   93.3787 H      1445      M_A    0.0000
  10123 C         182.0260   58.9051   91.2093 C.3    1446      M_A    0.0000
  10124 C         181.9961   59.0001   89.6867 C.3    1446      M_A    0.0000
  10125 O         183.2974   59.2927   89.1779 O.3    1446      M_A    0.0000
  10126 H         181.3418   59.6294   91.6640 H      1446      M_A    0.0000
  10127 H         183.0377   59.1398   91.5594 H      1446      M_A    0.0000
  10128 H         181.5984   58.0699   89.2562 H      1446      M_A    0.0000
  10129 H         181.3260   59.8036   89.3565 H      1446      M_A    0.0000
  10130 C         184.3092   58.7565   90.0059 C.3    1447      M_A    0.0000
  10131 C         183.9292   57.3881   90.5638 C.3    1447      M_A    0.0000
  10132 O         184.9816   56.4486   90.3450 O.3    1447      M_A    0.0000
  10133 H         185.2453   58.7065   89.4396 H      1447      M_A    0.0000
  10134 H         184.4637   59.4494   90.8410 H      1447      M_A    0.0000
  10135 H         183.6813   57.4692   91.6319 H      1447      M_A    0.0000
  10136 H         183.0318   56.9974   90.0680 H      1447      M_A    0.0000
  10137 C         185.0788   55.5238   91.4090 C.3    1448      M_A    0.0000
  10138 C         183.7152   54.9765   91.8204 C.3    1448      M_A    0.0000
  10139 O         183.8579   54.0027   92.8544 O.3    1448      M_A    0.0000
  10140 H         185.7580   54.7151   91.1186 H      1448      M_A    0.0000
  10141 H         185.5263   56.0411   92.2654 H      1448      M_A    0.0000
  10142 H         183.0552   55.7983   92.1334 H      1448      M_A    0.0000
  10143 H         183.2172   54.4867   90.9743 H      1448      M_A    0.0000
  10144 H         183.7705   54.4073   93.7427 H      1448      M_A    0.0000
  10145 H         255.7405  135.7447   99.1893 H         0      M_A    0.0000
@<TRIPOS>BOND
     1     1     2      1
     2     1     4      1
     3     1     5      1
     4     1 10145      1
     5     2     3      1
     6     2     6      1
     7     2     7      1
     8     3     8      1
     9     8     9      1
    10     8    11      1
    11     8    12      1
    12     9    10      1
    13     9    13      1
    14     9    14      1
    15    10    15      1
    16    15    16      1
    17    15    18      1
    18    15    19      1
    19    16    17      1
    20    16    20      1
    21    16    21      1
    22    17    22      1
    23    22    23      1
    24    22    25      1
    25    22    26      1
    26    23    24      1
    27    23    27      1
    28    23    28      1
    29    24    29      1
    30    29    30      1
    31    29    32      1
    32    29    33      1
    33    30    31      1
    34    30    34      1
    35    30    35      1
    36    31    36      1
    37    36    37      1
    38    36    39      1
    39    36    40      1
    40    37    38      1
    41    37    41      1
    42    37    42      1
    43    38    43      1
    44    43    44      1
    45    43    46      1
    46    43    47      1
    47    44    45      1
    48    44    48      1
    49    44    49      1
    50    45    50      1
    51    50    51      1
    52    50    53      1
    53    50    54      1
    54    51    52      1
    55    51    55      1
    56    51    56      1
    57    52    57      1
    58    57    58      1
    59    57    60      1
    60    57    61      1
    61    58    59      1
    62    58    62      1
    63    58    63      1
    64    59    64      1
    65    64    65      1
    66    64    67      1
    67    64    68      1
    68    65    66      1
    69    65    69      1
    70    65    70      1
    71    66    71      1
    72    71    72      1
    73    71    74      1
    74    71    75      1
    75    72    73      1
    76    72    76      1
    77    72    77      1
    78    73    78      1
    79    78    79      1
    80    78    81      1
    81    78    82      1
    82    79    80      1
    83    79    83      1
    84    79    84      1
    85    80    85      1
    86    85    86      1
    87    85    88      1
    88    85    89      1
    89    86    87      1
    90    86    90      1
    91    86    91      1
    92    87    92      1
    93    92    93      1
    94    92    95      1
    95    92    96      1
    96    93    94      1
    97    93    97      1
    98    93    98      1
    99    94    99      1
   100    99   100      1
   101    99   102      1
   102    99   103      1
   103   100   101      1
   104   100   104      1
   105   100   105      1
   106   101   106      1
   107   106   107      1
   108   106   109      1
   109   106   110      1
   110   107   108      1
   111   107   111      1
   112   107   112      1
   113   108   113      1
   114   113   114      1
   115   113   116      1
   116   113   117      1
   117   114   115      1
   118   114   118      1
   119   114   119      1
   120   115   120      1
   121   120   121      1
   122   120   123      1
   123   120   124      1
   124   121   122      1
   125   121   125      1
   126   121   126      1
   127   122   127      1
   128   127   128      1
   129   127   130      1
   130   127   131      1
   131   128   129      1
   132   128   132      1
   133   128   133      1
   134   129   134      1
   135   134   135      1
   136   134   137      1
   137   134   138      1
   138   135   136      1
   139   135   139      1
   140   135   140      1
   141   136   141      1
   142   141   142      1
   143   141   144      1
   144   141   145      1
   145   142   143      1
   146   142   146      1
   147   142   147      1
   148   143   148      1
   149   148   149      1
   150   148   151      1
   151   148   152      1
   152   149   150      1
   153   149   153      1
   154   149   154      1
   155   150   155      1
   156   155   156      1
   157   155   158      1
   158   155   159      1
   159   156   157      1
   160   156   160      1
   161   156   161      1
   162   157   162      1
   163   162   163      1
   164   162   165      1
   165   162   166      1
   166   163   164      1
   167   163   167      1
   168   163   168      1
   169   164   169      1
   170   169   170      1
   171   169   172      1
   172   169   173      1
   173   170   171      1
   174   170   174      1
   175   170   175      1
   176   171   176      1
   177   176   177      1
   178   176   179      1
   179   176   180      1
   180   177   178      1
   181   177   181      1
   182   177   182      1
   183   178   183      1
   184   183   184      1
   185   183   186      1
   186   183   187      1
   187   184   185      1
   188   184   188      1
   189   184   189      1
   190   185   190      1
   191   190   191      1
   192   190   193      1
   193   190   194      1
   194   191   192      1
   195   191   195      1
   196   191   196      1
   197   192   197      1
   198   197   198      1
   199   197   200      1
   200   197   201      1
   201   198   199      1
   202   198   202      1
   203   198   203      1
   204   199   204      1
   205   204   205      1
   206   204   207      1
   207   204   208      1
   208   205   206      1
   209   205   209      1
   210   205   210      1
   211   206   211      1
   212   211   212      1
   213   211   214      1
   214   211   215      1
   215   212   213      1
   216   212   216      1
   217   212   217      1
   218   213   218      1
   219   218   219      1
   220   218   221      1
   221   218   222      1
   222   219   220      1
   223   219   223      1
   224   219   224      1
   225   220   225      1
   226   225   226      1
   227   225   228      1
   228   225   229      1
   229   226   227      1
   230   226   230      1
   231   226   231      1
   232   227   232      1
   233   232   233      1
   234   232   235      1
   235   232   236      1
   236   233   234      1
   237   233   237      1
   238   233   238      1
   239   234   239      1
   240   239   240      1
   241   239   242      1
   242   239   243      1
   243   240   241      1
   244   240   244      1
   245   240   245      1
   246   241   246      1
   247   246   247      1
   248   246   249      1
   249   246   250      1
   250   247   248      1
   251   247   251      1
   252   247   252      1
   253   248   253      1
   254   253   254      1
   255   253   256      1
   256   253   257      1
   257   254   255      1
   258   254   258      1
   259   254   259      1
   260   255   260      1
   261   260   261      1
   262   260   263      1
   263   260   264      1
   264   261   262      1
   265   261   265      1
   266   261   266      1
   267   262   267      1
   268   267   268      1
   269   267   270      1
   270   267   271      1
   271   268   269      1
   272   268   272      1
   273   268   273      1
   274   269   274      1
   275   274   275      1
   276   274   277      1
   277   274   278      1
   278   275   276      1
   279   275   279      1
   280   275   280      1
   281   276   281      1
   282   281   282      1
   283   281   284      1
   284   281   285      1
   285   282   283      1
   286   282   286      1
   287   282   287      1
   288   283   288      1
   289   288   289      1
   290   288   291      1
   291   288   292      1
   292   289   290      1
   293   289   293      1
   294   289   294      1
   295   290   295      1
   296   295   296      1
   297   295   298      1
   298   295   299      1
   299   296   297      1
   300   296   300      1
   301   296   301      1
   302   297   302      1
   303   302   303      1
   304   302   305      1
   305   302   306      1
   306   303   304      1
   307   303   307      1
   308   303   308      1
   309   304   309      1
   310   309   310      1
   311   309   312      1
   312   309   313      1
   313   310   311      1
   314   310   314      1
   315   310   315      1
   316   311   316      1
   317   316   317      1
   318   316   319      1
   319   316   320      1
   320   317   318      1
   321   317   321      1
   322   317   322      1
   323   318   323      1
   324   323   324      1
   325   323   326      1
   326   323   327      1
   327   324   325      1
   328   324   328      1
   329   324   329      1
   330   325   330      1
   331   330   331      1
   332   330   333      1
   333   330   334      1
   334   331   332      1
   335   331   335      1
   336   331   336      1
   337   332   337      1
   338   337   338      1
   339   337   340      1
   340   337   341      1
   341   338   339      1
   342   338   342      1
   343   338   343      1
   344   339   344      1
   345   344   345      1
   346   344   347      1
   347   344   348      1
   348   345   346      1
   349   345   349      1
   350   345   350      1
   351   346   351      1
   352   351   352      1
   353   351   354      1
   354   351   355      1
   355   352   353      1
   356   352   356      1
   357   352   357      1
   358   353   358      1
   359   358   359      1
   360   358   361      1
   361   358   362      1
   362   359   360      1
   363   359   363      1
   364   359   364      1
   365   360   365      1
   366   365   366      1
   367   365   368      1
   368   365   369      1
   369   366   367      1
   370   366   370      1
   371   366   371      1
   372   367   372      1
   373   372   373      1
   374   372   375      1
   375   372   376      1
   376   373   374      1
   377   373   377      1
   378   373   378      1
   379   374   379      1
   380   379   380      1
   381   379   382      1
   382   379   383      1
   383   380   381      1
   384   380   384      1
   385   380   385      1
   386   381   386      1
   387   386   387      1
   388   386   389      1
   389   386   390      1
   390   387   388      1
   391   387   391      1
   392   387   392      1
   393   388   393      1
   394   393   394      1
   395   393   396      1
   396   393   397      1
   397   394   395      1
   398   394   398      1
   399   394   399      1
   400   395   400      1
   401   400   401      1
   402   400   403      1
   403   400   404      1
   404   401   402      1
   405   401   405      1
   406   401   406      1
   407   402   407      1
   408   407   408      1
   409   407   410      1
   410   407   411      1
   411   408   409      1
   412   408   412      1
   413   408   413      1
   414   409   414      1
   415   414   415      1
   416   414   417      1
   417   414   418      1
   418   415   416      1
   419   415   419      1
   420   415   420      1
   421   416   421      1
   422   421   422      1
   423   421   424      1
   424   421   425      1
   425   422   423      1
   426   422   426      1
   427   422   427      1
   428   423   428      1
   429   428   429      1
   430   428   431      1
   431   428   432      1
   432   429   430      1
   433   429   433      1
   434   429   434      1
   435   430   435      1
   436   435   436      1
   437   435   438      1
   438   435   439      1
   439   436   437      1
   440   436   440      1
   441   436   441      1
   442   437   442      1
   443   442   443      1
   444   442   445      1
   445   442   446      1
   446   443   444      1
   447   443   447      1
   448   443   448      1
   449   444   449      1
   450   449   450      1
   451   449   452      1
   452   449   453      1
   453   450   451      1
   454   450   454      1
   455   450   455      1
   456   451   456      1
   457   456   457      1
   458   456   459      1
   459   456   460      1
   460   457   458      1
   461   457   461      1
   462   457   462      1
   463   458   463      1
   464   463   464      1
   465   463   466      1
   466   463   467      1
   467   464   465      1
   468   464   468      1
   469   464   469      1
   470   465   470      1
   471   470   471      1
   472   470   473      1
   473   470   474      1
   474   471   472      1
   475   471   475      1
   476   471   476      1
   477   472   477      1
   478   477   478      1
   479   477   480      1
   480   477   481      1
   481   478   479      1
   482   478   482      1
   483   478   483      1
   484   479   484      1
   485   484   485      1
   486   484   487      1
   487   484   488      1
   488   485   486      1
   489   485   489      1
   490   485   490      1
   491   486   491      1
   492   491   492      1
   493   491   494      1
   494   491   495      1
   495   492   493      1
   496   492   496      1
   497   492   497      1
   498   493   498      1
   499   498   499      1
   500   498   501      1
   501   498   502      1
   502   499   500      1
   503   499   503      1
   504   499   504      1
   505   500   505      1
   506   505   506      1
   507   505   508      1
   508   505   509      1
   509   506   507      1
   510   506   510      1
   511   506   511      1
   512   507   512      1
   513   512   513      1
   514   512   515      1
   515   512   516      1
   516   513   514      1
   517   513   517      1
   518   513   518      1
   519   514   519      1
   520   519   520      1
   521   519   522      1
   522   519   523      1
   523   520   521      1
   524   520   524      1
   525   520   525      1
   526   521   526      1
   527   526   527      1
   528   526   529      1
   529   526   530      1
   530   527   528      1
   531   527   531      1
   532   527   532      1
   533   528   533      1
   534   533   534      1
   535   533   536      1
   536   533   537      1
   537   534   535      1
   538   534   538      1
   539   534   539      1
   540   535   540      1
   541   540   541      1
   542   540   543      1
   543   540   544      1
   544   541   542      1
   545   541   545      1
   546   541   546      1
   547   542   547      1
   548   547   548      1
   549   547   550      1
   550   547   551      1
   551   548   549      1
   552   548   552      1
   553   548   553      1
   554   549   554      1
   555   554   555      1
   556   554   557      1
   557   554   558      1
   558   555   556      1
   559   555   559      1
   560   555   560      1
   561   556   561      1
   562   561   562      1
   563   561   564      1
   564   561   565      1
   565   562   563      1
   566   562   566      1
   567   562   567      1
   568   563   568      1
   569   568   569      1
   570   568   571      1
   571   568   572      1
   572   569   570      1
   573   569   573      1
   574   569   574      1
   575   570   575      1
   576   575   576      1
   577   575   578      1
   578   575   579      1
   579   576   577      1
   580   576   580      1
   581   576   581      1
   582   577   582      1
   583   582   583      1
   584   582   585      1
   585   582   586      1
   586   583   584      1
   587   583   587      1
   588   583   588      1
   589   584   589      1
   590   589   590      1
   591   589   592      1
   592   589   593      1
   593   590   591      1
   594   590   594      1
   595   590   595      1
   596   591   596      1
   597   596   597      1
   598   596   599      1
   599   596   600      1
   600   597   598      1
   601   597   601      1
   602   597   602      1
   603   598   603      1
   604   603   604      1
   605   603   606      1
   606   603   607      1
   607   604   605      1
   608   604   608      1
   609   604   609      1
   610   605   610      1
   611   610   611      1
   612   610   613      1
   613   610   614      1
   614   611   612      1
   615   611   615      1
   616   611   616      1
   617   612   617      1
   618   617   618      1
   619   617   620      1
   620   617   621      1
   621   618   619      1
   622   618   622      1
   623   618   623      1
   624   619   624      1
   625   624   625      1
   626   624   627      1
   627   624   628      1
   628   625   626      1
   629   625   629      1
   630   625   630      1
   631   626   631      1
   632   631   632      1
   633   631   634      1
   634   631   635      1
   635   632   633      1
   636   632   636      1
   637   632   637      1
   638   633   638      1
   639   638   639      1
   640   638   641      1
   641   638   642      1
   642   639   640      1
   643   639   643      1
   644   639   644      1
   645   640   645      1
   646   645   646      1
   647   645   648      1
   648   645   649      1
   649   646   647      1
   650   646   650      1
   651   646   651      1
   652   647   652      1
   653   652   653      1
   654   652   655      1
   655   652   656      1
   656   653   654      1
   657   653   657      1
   658   653   658      1
   659   654   659      1
   660   659   660      1
   661   659   662      1
   662   659   663      1
   663   660   661      1
   664   660   664      1
   665   660   665      1
   666   661   666      1
   667   666   667      1
   668   666   669      1
   669   666   670      1
   670   667   668      1
   671   667   671      1
   672   667   672      1
   673   668   673      1
   674   673   674      1
   675   673   676      1
   676   673   677      1
   677   674   675      1
   678   674   678      1
   679   674   679      1
   680   675   680      1
   681   680   681      1
   682   680   683      1
   683   680   684      1
   684   681   682      1
   685   681   685      1
   686   681   686      1
   687   682   687      1
   688   687   688      1
   689   687   690      1
   690   687   691      1
   691   688   689      1
   692   688   692      1
   693   688   693      1
   694   689   694      1
   695   694   695      1
   696   694   697      1
   697   694   698      1
   698   695   696      1
   699   695   699      1
   700   695   700      1
   701   696   701      1
   702   701   702      1
   703   701   704      1
   704   701   705      1
   705   702   703      1
   706   702   706      1
   707   702   707      1
   708   703   708      1
   709   708   709      1
   710   708   711      1
   711   708   712      1
   712   709   710      1
   713   709   713      1
   714   709   714      1
   715   710   715      1
   716   715   716      1
   717   715   718      1
   718   715   719      1
   719   716   717      1
   720   716   720      1
   721   716   721      1
   722   717   722      1
   723   722   723      1
   724   722   725      1
   725   722   726      1
   726   723   724      1
   727   723   727      1
   728   723   728      1
   729   724   729      1
   730   729   730      1
   731   729   732      1
   732   729   733      1
   733   730   731      1
   734   730   734      1
   735   730   735      1
   736   731   736      1
   737   736   737      1
   738   736   739      1
   739   736   740      1
   740   737   738      1
   741   737   741      1
   742   737   742      1
   743   738   743      1
   744   743   744      1
   745   743   746      1
   746   743   747      1
   747   744   745      1
   748   744   748      1
   749   744   749      1
   750   745   750      1
   751   750   751      1
   752   750   753      1
   753   750   754      1
   754   751   752      1
   755   751   755      1
   756   751   756      1
   757   752   757      1
   758   757   758      1
   759   757   760      1
   760   757   761      1
   761   758   759      1
   762   758   762      1
   763   758   763      1
   764   759   764      1
   765   764   765      1
   766   764   767      1
   767   764   768      1
   768   765   766      1
   769   765   769      1
   770   765   770      1
   771   766   771      1
   772   771   772      1
   773   771   774      1
   774   771   775      1
   775   772   773      1
   776   772   776      1
   777   772   777      1
   778   773   778      1
   779   778   779      1
   780   778   781      1
   781   778   782      1
   782   779   780      1
   783   779   783      1
   784   779   784      1
   785   780   785      1
   786   785   786      1
   787   785   788      1
   788   785   789      1
   789   786   787      1
   790   786   790      1
   791   786   791      1
   792   787   792      1
   793   792   793      1
   794   792   795      1
   795   792   796      1
   796   793   794      1
   797   793   797      1
   798   793   798      1
   799   794   799      1
   800   799   800      1
   801   799   802      1
   802   799   803      1
   803   800   801      1
   804   800   804      1
   805   800   805      1
   806   801   806      1
   807   806   807      1
   808   806   809      1
   809   806   810      1
   810   807   808      1
   811   807   811      1
   812   807   812      1
   813   808   813      1
   814   813   814      1
   815   813   816      1
   816   813   817      1
   817   814   815      1
   818   814   818      1
   819   814   819      1
   820   815   820      1
   821   820   821      1
   822   820   823      1
   823   820   824      1
   824   821   822      1
   825   821   825      1
   826   821   826      1
   827   822   827      1
   828   827   828      1
   829   827   830      1
   830   827   831      1
   831   828   829      1
   832   828   832      1
   833   828   833      1
   834   829   834      1
   835   834   835      1
   836   834   837      1
   837   834   838      1
   838   835   836      1
   839   835   839      1
   840   835   840      1
   841   836   841      1
   842   841   842      1
   843   841   844      1
   844   841   845      1
   845   842   843      1
   846   842   846      1
   847   842   847      1
   848   843   848      1
   849   848   849      1
   850   848   851      1
   851   848   852      1
   852   849   850      1
   853   849   853      1
   854   849   854      1
   855   850   855      1
   856   855   856      1
   857   855   858      1
   858   855   859      1
   859   856   857      1
   860   856   860      1
   861   856   861      1
   862   857   862      1
   863   862   863      1
   864   862   865      1
   865   862   866      1
   866   863   864      1
   867   863   867      1
   868   863   868      1
   869   864   869      1
   870   869   870      1
   871   869   872      1
   872   869   873      1
   873   870   871      1
   874   870   874      1
   875   870   875      1
   876   871   876      1
   877   876   877      1
   878   876   879      1
   879   876   880      1
   880   877   878      1
   881   877   881      1
   882   877   882      1
   883   878   883      1
   884   883   884      1
   885   883   886      1
   886   883   887      1
   887   884   885      1
   888   884   888      1
   889   884   889      1
   890   885   890      1
   891   890   891      1
   892   890   893      1
   893   890   894      1
   894   891   892      1
   895   891   895      1
   896   891   896      1
   897   892   897      1
   898   897   898      1
   899   897   900      1
   900   897   901      1
   901   898   899      1
   902   898   902      1
   903   898   903      1
   904   899   904      1
   905   904   905      1
   906   904   907      1
   907   904   908      1
   908   905   906      1
   909   905   909      1
   910   905   910      1
   911   906   911      1
   912   911   912      1
   913   911   914      1
   914   911   915      1
   915   912   913      1
   916   912   916      1
   917   912   917      1
   918   913   918      1
   919   918   919      1
   920   918   921      1
   921   918   922      1
   922   919   920      1
   923   919   923      1
   924   919   924      1
   925   920   925      1
   926   925   926      1
   927   925   928      1
   928   925   929      1
   929   926   927      1
   930   926   930      1
   931   926   931      1
   932   927   932      1
   933   932   933      1
   934   932   935      1
   935   932   936      1
   936   933   934      1
   937   933   937      1
   938   933   938      1
   939   934   939      1
   940   939   940      1
   941   939   942      1
   942   939   943      1
   943   940   941      1
   944   940   944      1
   945   940   945      1
   946   941   946      1
   947   946   947      1
   948   946   949      1
   949   946   950      1
   950   947   948      1
   951   947   951      1
   952   947   952      1
   953   948   953      1
   954   953   954      1
   955   953   956      1
   956   953   957      1
   957   954   955      1
   958   954   958      1
   959   954   959      1
   960   955   960      1
   961   960   961      1
   962   960   963      1
   963   960   964      1
   964   961   962      1
   965   961   965      1
   966   961   966      1
   967   962   967      1
   968   967   968      1
   969   967   970      1
   970   967   971      1
   971   968   969      1
   972   968   972      1
   973   968   973      1
   974   969   974      1
   975   974   975      1
   976   974   977      1
   977   974   978      1
   978   975   976      1
   979   975   979      1
   980   975   980      1
   981   976   981      1
   982   981   982      1
   983   981   984      1
   984   981   985      1
   985   982   983      1
   986   982   986      1
   987   982   987      1
   988   983   988      1
   989   988   989      1
   990   988   991      1
   991   988   992      1
   992   989   990      1
   993   989   993      1
   994   989   994      1
   995   990   995      1
   996   995   996      1
   997   995   998      1
   998   995   999      1
   999   996   997      1
  1000   996  1000      1
  1001   996  1001      1
  1002   997  1002      1
  1003  1002  1003      1
  1004  1002  1005      1
  1005  1002  1006      1
  1006  1003  1004      1
  1007  1003  1007      1
  1008  1003  1008      1
  1009  1004  1009      1
  1010  1009  1010      1
  1011  1009  1012      1
  1012  1009  1013      1
  1013  1010  1011      1
  1014  1010  1014      1
  1015  1010  1015      1
  1016  1011  1016      1
  1017  1016  1017      1
  1018  1016  1019      1
  1019  1016  1020      1
  1020  1017  1018      1
  1021  1017  1021      1
  1022  1017  1022      1
  1023  1018  1023      1
  1024  1023  1024      1
  1025  1023  1026      1
  1026  1023  1027      1
  1027  1024  1025      1
  1028  1024  1028      1
  1029  1024  1029      1
  1030  1025  1030      1
  1031  1030  1031      1
  1032  1030  1033      1
  1033  1030  1034      1
  1034  1031  1032      1
  1035  1031  1035      1
  1036  1031  1036      1
  1037  1032  1037      1
  1038  1037  1038      1
  1039  1037  1040      1
  1040  1037  1041      1
  1041  1038  1039      1
  1042  1038  1042      1
  1043  1038  1043      1
  1044  1039  1044      1
  1045  1044  1045      1
  1046  1044  1047      1
  1047  1044  1048      1
  1048  1045  1046      1
  1049  1045  1049      1
  1050  1045  1050      1
  1051  1046  1051      1
  1052  1051  1052      1
  1053  1051  1054      1
  1054  1051  1055      1
  1055  1052  1053      1
  1056  1052  1056      1
  1057  1052  1057      1
  1058  1053  1058      1
  1059  1058  1059      1
  1060  1058  1061      1
  1061  1058  1062      1
  1062  1059  1060      1
  1063  1059  1063      1
  1064  1059  1064      1
  1065  1060  1065      1
  1066  1065  1066      1
  1067  1065  1068      1
  1068  1065  1069      1
  1069  1066  1067      1
  1070  1066  1070      1
  1071  1066  1071      1
  1072  1067  1072      1
  1073  1072  1073      1
  1074  1072  1075      1
  1075  1072  1076      1
  1076  1073  1074      1
  1077  1073  1077      1
  1078  1073  1078      1
  1079  1074  1079      1
  1080  1079  1080      1
  1081  1079  1082      1
  1082  1079  1083      1
  1083  1080  1081      1
  1084  1080  1084      1
  1085  1080  1085      1
  1086  1081  1086      1
  1087  1086  1087      1
  1088  1086  1089      1
  1089  1086  1090      1
  1090  1087  1088      1
  1091  1087  1091      1
  1092  1087  1092      1
  1093  1088  1093      1
  1094  1093  1094      1
  1095  1093  1096      1
  1096  1093  1097      1
  1097  1094  1095      1
  1098  1094  1098      1
  1099  1094  1099      1
  1100  1095  1100      1
  1101  1100  1101      1
  1102  1100  1103      1
  1103  1100  1104      1
  1104  1101  1102      1
  1105  1101  1105      1
  1106  1101  1106      1
  1107  1102  1107      1
  1108  1107  1108      1
  1109  1107  1110      1
  1110  1107  1111      1
  1111  1108  1109      1
  1112  1108  1112      1
  1113  1108  1113      1
  1114  1109  1114      1
  1115  1114  1115      1
  1116  1114  1117      1
  1117  1114  1118      1
  1118  1115  1116      1
  1119  1115  1119      1
  1120  1115  1120      1
  1121  1116  1121      1
  1122  1121  1122      1
  1123  1121  1124      1
  1124  1121  1125      1
  1125  1122  1123      1
  1126  1122  1126      1
  1127  1122  1127      1
  1128  1123  1128      1
  1129  1128  1129      1
  1130  1128  1131      1
  1131  1128  1132      1
  1132  1129  1130      1
  1133  1129  1133      1
  1134  1129  1134      1
  1135  1130  1135      1
  1136  1135  1136      1
  1137  1135  1138      1
  1138  1135  1139      1
  1139  1136  1137      1
  1140  1136  1140      1
  1141  1136  1141      1
  1142  1137  1142      1
  1143  1142  1143      1
  1144  1142  1145      1
  1145  1142  1146      1
  1146  1143  1144      1
  1147  1143  1147      1
  1148  1143  1148      1
  1149  1144  1149      1
  1150  1149  1150      1
  1151  1149  1152      1
  1152  1149  1153      1
  1153  1150  1151      1
  1154  1150  1154      1
  1155  1150  1155      1
  1156  1151  1156      1
  1157  1156  1157      1
  1158  1156  1159      1
  1159  1156  1160      1
  1160  1157  1158      1
  1161  1157  1161      1
  1162  1157  1162      1
  1163  1158  1163      1
  1164  1163  1164      1
  1165  1163  1166      1
  1166  1163  1167      1
  1167  1164  1165      1
  1168  1164  1168      1
  1169  1164  1169      1
  1170  1165  1170      1
  1171  1170  1171      1
  1172  1170  1173      1
  1173  1170  1174      1
  1174  1171  1172      1
  1175  1171  1175      1
  1176  1171  1176      1
  1177  1172  1177      1
  1178  1177  1178      1
  1179  1177  1180      1
  1180  1177  1181      1
  1181  1178  1179      1
  1182  1178  1182      1
  1183  1178  1183      1
  1184  1179  1184      1
  1185  1184  1185      1
  1186  1184  1187      1
  1187  1184  1188      1
  1188  1185  1186      1
  1189  1185  1189      1
  1190  1185  1190      1
  1191  1186  1191      1
  1192  1191  1192      1
  1193  1191  1194      1
  1194  1191  1195      1
  1195  1192  1193      1
  1196  1192  1196      1
  1197  1192  1197      1
  1198  1193  1198      1
  1199  1198  1199      1
  1200  1198  1201      1
  1201  1198  1202      1
  1202  1199  1200      1
  1203  1199  1203      1
  1204  1199  1204      1
  1205  1200  1205      1
  1206  1205  1206      1
  1207  1205  1208      1
  1208  1205  1209      1
  1209  1206  1207      1
  1210  1206  1210      1
  1211  1206  1211      1
  1212  1207  1212      1
  1213  1212  1213      1
  1214  1212  1215      1
  1215  1212  1216      1
  1216  1213  1214      1
  1217  1213  1217      1
  1218  1213  1218      1
  1219  1214  1219      1
  1220  1219  1220      1
  1221  1219  1222      1
  1222  1219  1223      1
  1223  1220  1221      1
  1224  1220  1224      1
  1225  1220  1225      1
  1226  1221  1226      1
  1227  1226  1227      1
  1228  1226  1229      1
  1229  1226  1230      1
  1230  1227  1228      1
  1231  1227  1231      1
  1232  1227  1232      1
  1233  1228  1233      1
  1234  1233  1234      1
  1235  1233  1236      1
  1236  1233  1237      1
  1237  1234  1235      1
  1238  1234  1238      1
  1239  1234  1239      1
  1240  1235  1240      1
  1241  1240  1241      1
  1242  1240  1243      1
  1243  1240  1244      1
  1244  1241  1242      1
  1245  1241  1245      1
  1246  1241  1246      1
  1247  1242  1247      1
  1248  1247  1248      1
  1249  1247  1250      1
  1250  1247  1251      1
  1251  1248  1249      1
  1252  1248  1252      1
  1253  1248  1253      1
  1254  1249  1254      1
  1255  1254  1255      1
  1256  1254  1257      1
  1257  1254  1258      1
  1258  1255  1256      1
  1259  1255  1259      1
  1260  1255  1260      1
  1261  1256  1261      1
  1262  1261  1262      1
  1263  1261  1264      1
  1264  1261  1265      1
  1265  1262  1263      1
  1266  1262  1266      1
  1267  1262  1267      1
  1268  1263  1268      1
  1269  1268  1269      1
  1270  1268  1271      1
  1271  1268  1272      1
  1272  1269  1270      1
  1273  1269  1273      1
  1274  1269  1274      1
  1275  1270  1275      1
  1276  1275  1276      1
  1277  1275  1278      1
  1278  1275  1279      1
  1279  1276  1277      1
  1280  1276  1280      1
  1281  1276  1281      1
  1282  1277  1282      1
  1283  1282  1283      1
  1284  1282  1285      1
  1285  1282  1286      1
  1286  1283  1284      1
  1287  1283  1287      1
  1288  1283  1288      1
  1289  1284  1289      1
  1290  1289  1290      1
  1291  1289  1292      1
  1292  1289  1293      1
  1293  1290  1291      1
  1294  1290  1294      1
  1295  1290  1295      1
  1296  1291  1296      1
  1297  1296  1297      1
  1298  1296  1299      1
  1299  1296  1300      1
  1300  1297  1298      1
  1301  1297  1301      1
  1302  1297  1302      1
  1303  1298  1303      1
  1304  1303  1304      1
  1305  1303  1306      1
  1306  1303  1307      1
  1307  1304  1305      1
  1308  1304  1308      1
  1309  1304  1309      1
  1310  1305  1310      1
  1311  1310  1311      1
  1312  1310  1313      1
  1313  1310  1314      1
  1314  1311  1312      1
  1315  1311  1315      1
  1316  1311  1316      1
  1317  1312  1317      1
  1318  1317  1318      1
  1319  1317  1320      1
  1320  1317  1321      1
  1321  1318  1319      1
  1322  1318  1322      1
  1323  1318  1323      1
  1324  1319  1324      1
  1325  1324  1325      1
  1326  1324  1327      1
  1327  1324  1328      1
  1328  1325  1326      1
  1329  1325  1329      1
  1330  1325  1330      1
  1331  1326  1331      1
  1332  1331  1332      1
  1333  1331  1334      1
  1334  1331  1335      1
  1335  1332  1333      1
  1336  1332  1336      1
  1337  1332  1337      1
  1338  1333  1338      1
  1339  1338  1339      1
  1340  1338  1341      1
  1341  1338  1342      1
  1342  1339  1340      1
  1343  1339  1343      1
  1344  1339  1344      1
  1345  1340  1345      1
  1346  1345  1346      1
  1347  1345  1348      1
  1348  1345  1349      1
  1349  1346  1347      1
  1350  1346  1350      1
  1351  1346  1351      1
  1352  1347  1352      1
  1353  1352  1353      1
  1354  1352  1355      1
  1355  1352  1356      1
  1356  1353  1354      1
  1357  1353  1357      1
  1358  1353  1358      1
  1359  1354  1359      1
  1360  1359  1360      1
  1361  1359  1362      1
  1362  1359  1363      1
  1363  1360  1361      1
  1364  1360  1364      1
  1365  1360  1365      1
  1366  1361  1366      1
  1367  1366  1367      1
  1368  1366  1369      1
  1369  1366  1370      1
  1370  1367  1368      1
  1371  1367  1371      1
  1372  1367  1372      1
  1373  1368  1373      1
  1374  1373  1374      1
  1375  1373  1376      1
  1376  1373  1377      1
  1377  1374  1375      1
  1378  1374  1378      1
  1379  1374  1379      1
  1380  1375  1380      1
  1381  1380  1381      1
  1382  1380  1383      1
  1383  1380  1384      1
  1384  1381  1382      1
  1385  1381  1385      1
  1386  1381  1386      1
  1387  1382  1387      1
  1388  1387  1388      1
  1389  1387  1390      1
  1390  1387  1391      1
  1391  1388  1389      1
  1392  1388  1392      1
  1393  1388  1393      1
  1394  1389  1394      1
  1395  1394  1395      1
  1396  1394  1397      1
  1397  1394  1398      1
  1398  1395  1396      1
  1399  1395  1399      1
  1400  1395  1400      1
  1401  1396  1401      1
  1402  1401  1402      1
  1403  1401  1404      1
  1404  1401  1405      1
  1405  1402  1403      1
  1406  1402  1406      1
  1407  1402  1407      1
  1408  1403  1408      1
  1409  1408  1409      1
  1410  1408  1411      1
  1411  1408  1412      1
  1412  1409  1410      1
  1413  1409  1413      1
  1414  1409  1414      1
  1415  1410  1415      1
  1416  1415  1416      1
  1417  1415  1418      1
  1418  1415  1419      1
  1419  1416  1417      1
  1420  1416  1420      1
  1421  1416  1421      1
  1422  1417  1422      1
  1423  1422  1423      1
  1424  1422  1425      1
  1425  1422  1426      1
  1426  1423  1424      1
  1427  1423  1427      1
  1428  1423  1428      1
  1429  1424  1429      1
  1430  1429  1430      1
  1431  1429  1432      1
  1432  1429  1433      1
  1433  1430  1431      1
  1434  1430  1434      1
  1435  1430  1435      1
  1436  1431  1436      1
  1437  1436  1437      1
  1438  1436  1439      1
  1439  1436  1440      1
  1440  1437  1438      1
  1441  1437  1441      1
  1442  1437  1442      1
  1443  1438  1443      1
  1444  1443  1444      1
  1445  1443  1446      1
  1446  1443  1447      1
  1447  1444  1445      1
  1448  1444  1448      1
  1449  1444  1449      1
  1450  1445  1450      1
  1451  1450  1451      1
  1452  1450  1453      1
  1453  1450  1454      1
  1454  1451  1452      1
  1455  1451  1455      1
  1456  1451  1456      1
  1457  1452  1457      1
  1458  1457  1458      1
  1459  1457  1460      1
  1460  1457  1461      1
  1461  1458  1459      1
  1462  1458  1462      1
  1463  1458  1463      1
  1464  1459  1464      1
  1465  1464  1465      1
  1466  1464  1467      1
  1467  1464  1468      1
  1468  1465  1466      1
  1469  1465  1469      1
  1470  1465  1470      1
  1471  1466  1471      1
  1472  1471  1472      1
  1473  1471  1474      1
  1474  1471  1475      1
  1475  1472  1473      1
  1476  1472  1476      1
  1477  1472  1477      1
  1478  1473  1478      1
  1479  1478  1479      1
  1480  1478  1481      1
  1481  1478  1482      1
  1482  1479  1480      1
  1483  1479  1483      1
  1484  1479  1484      1
  1485  1480  1485      1
  1486  1485  1486      1
  1487  1485  1488      1
  1488  1485  1489      1
  1489  1486  1487      1
  1490  1486  1490      1
  1491  1486  1491      1
  1492  1487  1492      1
  1493  1492  1493      1
  1494  1492  1495      1
  1495  1492  1496      1
  1496  1493  1494      1
  1497  1493  1497      1
  1498  1493  1498      1
  1499  1494  1499      1
  1500  1499  1500      1
  1501  1499  1502      1
  1502  1499  1503      1
  1503  1500  1501      1
  1504  1500  1504      1
  1505  1500  1505      1
  1506  1501  1506      1
  1507  1506  1507      1
  1508  1506  1509      1
  1509  1506  1510      1
  1510  1507  1508      1
  1511  1507  1511      1
  1512  1507  1512      1
  1513  1508  1513      1
  1514  1513  1514      1
  1515  1513  1516      1
  1516  1513  1517      1
  1517  1514  1515      1
  1518  1514  1518      1
  1519  1514  1519      1
  1520  1515  1520      1
  1521  1520  1521      1
  1522  1520  1523      1
  1523  1520  1524      1
  1524  1521  1522      1
  1525  1521  1525      1
  1526  1521  1526      1
  1527  1522  1527      1
  1528  1527  1528      1
  1529  1527  1530      1
  1530  1527  1531      1
  1531  1528  1529      1
  1532  1528  1532      1
  1533  1528  1533      1
  1534  1529  1534      1
  1535  1534  1535      1
  1536  1534  1537      1
  1537  1534  1538      1
  1538  1535  1536      1
  1539  1535  1539      1
  1540  1535  1540      1
  1541  1536  1541      1
  1542  1541  1542      1
  1543  1541  1544      1
  1544  1541  1545      1
  1545  1542  1543      1
  1546  1542  1546      1
  1547  1542  1547      1
  1548  1543  1548      1
  1549  1548  1549      1
  1550  1548  1551      1
  1551  1548  1552      1
  1552  1549  1550      1
  1553  1549  1553      1
  1554  1549  1554      1
  1555  1550  1555      1
  1556  1555  1556      1
  1557  1555  1558      1
  1558  1555  1559      1
  1559  1556  1557      1
  1560  1556  1560      1
  1561  1556  1561      1
  1562  1557  1562      1
  1563  1562  1563      1
  1564  1562  1565      1
  1565  1562  1566      1
  1566  1563  1564      1
  1567  1563  1567      1
  1568  1563  1568      1
  1569  1564  1569      1
  1570  1569  1570      1
  1571  1569  1572      1
  1572  1569  1573      1
  1573  1570  1571      1
  1574  1570  1574      1
  1575  1570  1575      1
  1576  1571  1576      1
  1577  1576  1577      1
  1578  1576  1579      1
  1579  1576  1580      1
  1580  1577  1578      1
  1581  1577  1581      1
  1582  1577  1582      1
  1583  1578  1583      1
  1584  1583  1584      1
  1585  1583  1586      1
  1586  1583  1587      1
  1587  1584  1585      1
  1588  1584  1588      1
  1589  1584  1589      1
  1590  1585  1590      1
  1591  1590  1591      1
  1592  1590  1593      1
  1593  1590  1594      1
  1594  1591  1592      1
  1595  1591  1595      1
  1596  1591  1596      1
  1597  1592  1597      1
  1598  1597  1598      1
  1599  1597  1600      1
  1600  1597  1601      1
  1601  1598  1599      1
  1602  1598  1602      1
  1603  1598  1603      1
  1604  1599  1604      1
  1605  1604  1605      1
  1606  1604  1607      1
  1607  1604  1608      1
  1608  1605  1606      1
  1609  1605  1609      1
  1610  1605  1610      1
  1611  1606  1611      1
  1612  1611  1612      1
  1613  1611  1614      1
  1614  1611  1615      1
  1615  1612  1613      1
  1616  1612  1616      1
  1617  1612  1617      1
  1618  1613  1618      1
  1619  1618  1619      1
  1620  1618  1621      1
  1621  1618  1622      1
  1622  1619  1620      1
  1623  1619  1623      1
  1624  1619  1624      1
  1625  1620  1625      1
  1626  1625  1626      1
  1627  1625  1628      1
  1628  1625  1629      1
  1629  1626  1627      1
  1630  1626  1630      1
  1631  1626  1631      1
  1632  1627  1632      1
  1633  1632  1633      1
  1634  1632  1635      1
  1635  1632  1636      1
  1636  1633  1634      1
  1637  1633  1637      1
  1638  1633  1638      1
  1639  1634  1639      1
  1640  1639  1640      1
  1641  1639  1642      1
  1642  1639  1643      1
  1643  1640  1641      1
  1644  1640  1644      1
  1645  1640  1645      1
  1646  1641  1646      1
  1647  1646  1647      1
  1648  1646  1649      1
  1649  1646  1650      1
  1650  1647  1648      1
  1651  1647  1651      1
  1652  1647  1652      1
  1653  1648  1653      1
  1654  1653  1654      1
  1655  1653  1656      1
  1656  1653  1657      1
  1657  1654  1655      1
  1658  1654  1658      1
  1659  1654  1659      1
  1660  1655  1660      1
  1661  1660  1661      1
  1662  1660  1663      1
  1663  1660  1664      1
  1664  1661  1662      1
  1665  1661  1665      1
  1666  1661  1666      1
  1667  1662  1667      1
  1668  1667  1668      1
  1669  1667  1670      1
  1670  1667  1671      1
  1671  1668  1669      1
  1672  1668  1672      1
  1673  1668  1673      1
  1674  1669  1674      1
  1675  1674  1675      1
  1676  1674  1677      1
  1677  1674  1678      1
  1678  1675  1676      1
  1679  1675  1679      1
  1680  1675  1680      1
  1681  1676  1681      1
  1682  1681  1682      1
  1683  1681  1684      1
  1684  1681  1685      1
  1685  1682  1683      1
  1686  1682  1686      1
  1687  1682  1687      1
  1688  1683  1688      1
  1689  1688  1689      1
  1690  1688  1691      1
  1691  1688  1692      1
  1692  1689  1690      1
  1693  1689  1693      1
  1694  1689  1694      1
  1695  1690  1695      1
  1696  1695  1696      1
  1697  1695  1698      1
  1698  1695  1699      1
  1699  1696  1697      1
  1700  1696  1700      1
  1701  1696  1701      1
  1702  1697  1702      1
  1703  1702  1703      1
  1704  1702  1705      1
  1705  1702  1706      1
  1706  1703  1704      1
  1707  1703  1707      1
  1708  1703  1708      1
  1709  1704  1709      1
  1710  1709  1710      1
  1711  1709  1712      1
  1712  1709  1713      1
  1713  1710  1711      1
  1714  1710  1714      1
  1715  1710  1715      1
  1716  1711  1716      1
  1717  1716  1717      1
  1718  1716  1719      1
  1719  1716  1720      1
  1720  1717  1718      1
  1721  1717  1721      1
  1722  1717  1722      1
  1723  1718  1723      1
  1724  1723  1724      1
  1725  1723  1726      1
  1726  1723  1727      1
  1727  1724  1725      1
  1728  1724  1728      1
  1729  1724  1729      1
  1730  1725  1730      1
  1731  1730  1731      1
  1732  1730  1733      1
  1733  1730  1734      1
  1734  1731  1732      1
  1735  1731  1735      1
  1736  1731  1736      1
  1737  1732  1737      1
  1738  1737  1738      1
  1739  1737  1740      1
  1740  1737  1741      1
  1741  1738  1739      1
  1742  1738  1742      1
  1743  1738  1743      1
  1744  1739  1744      1
  1745  1744  1745      1
  1746  1744  1747      1
  1747  1744  1748      1
  1748  1745  1746      1
  1749  1745  1749      1
  1750  1745  1750      1
  1751  1746  1751      1
  1752  1751  1752      1
  1753  1751  1754      1
  1754  1751  1755      1
  1755  1752  1753      1
  1756  1752  1756      1
  1757  1752  1757      1
  1758  1753  1758      1
  1759  1758  1759      1
  1760  1758  1761      1
  1761  1758  1762      1
  1762  1759  1760      1
  1763  1759  1763      1
  1764  1759  1764      1
  1765  1760  1765      1
  1766  1765  1766      1
  1767  1765  1768      1
  1768  1765  1769      1
  1769  1766  1767      1
  1770  1766  1770      1
  1771  1766  1771      1
  1772  1767  1772      1
  1773  1772  1773      1
  1774  1772  1775      1
  1775  1772  1776      1
  1776  1773  1774      1
  1777  1773  1777      1
  1778  1773  1778      1
  1779  1774  1779      1
  1780  1779  1780      1
  1781  1779  1782      1
  1782  1779  1783      1
  1783  1780  1781      1
  1784  1780  1784      1
  1785  1780  1785      1
  1786  1781  1786      1
  1787  1786  1787      1
  1788  1786  1789      1
  1789  1786  1790      1
  1790  1787  1788      1
  1791  1787  1791      1
  1792  1787  1792      1
  1793  1788  1793      1
  1794  1793  1794      1
  1795  1793  1796      1
  1796  1793  1797      1
  1797  1794  1795      1
  1798  1794  1798      1
  1799  1794  1799      1
  1800  1795  1800      1
  1801  1800  1801      1
  1802  1800  1803      1
  1803  1800  1804      1
  1804  1801  1802      1
  1805  1801  1805      1
  1806  1801  1806      1
  1807  1802  1807      1
  1808  1807  1808      1
  1809  1807  1810      1
  1810  1807  1811      1
  1811  1808  1809      1
  1812  1808  1812      1
  1813  1808  1813      1
  1814  1809  1814      1
  1815  1814  1815      1
  1816  1814  1817      1
  1817  1814  1818      1
  1818  1815  1816      1
  1819  1815  1819      1
  1820  1815  1820      1
  1821  1816  1821      1
  1822  1821  1822      1
  1823  1821  1824      1
  1824  1821  1825      1
  1825  1822  1823      1
  1826  1822  1826      1
  1827  1822  1827      1
  1828  1823  1828      1
  1829  1828  1829      1
  1830  1828  1831      1
  1831  1828  1832      1
  1832  1829  1830      1
  1833  1829  1833      1
  1834  1829  1834      1
  1835  1830  1835      1
  1836  1835  1836      1
  1837  1835  1838      1
  1838  1835  1839      1
  1839  1836  1837      1
  1840  1836  1840      1
  1841  1836  1841      1
  1842  1837  1842      1
  1843  1842  1843      1
  1844  1842  1845      1
  1845  1842  1846      1
  1846  1843  1844      1
  1847  1843  1847      1
  1848  1843  1848      1
  1849  1844  1849      1
  1850  1849  1850      1
  1851  1849  1852      1
  1852  1849  1853      1
  1853  1850  1851      1
  1854  1850  1854      1
  1855  1850  1855      1
  1856  1851  1856      1
  1857  1856  1857      1
  1858  1856  1859      1
  1859  1856  1860      1
  1860  1857  1858      1
  1861  1857  1861      1
  1862  1857  1862      1
  1863  1858  1863      1
  1864  1863  1864      1
  1865  1863  1866      1
  1866  1863  1867      1
  1867  1864  1865      1
  1868  1864  1868      1
  1869  1864  1869      1
  1870  1865  1870      1
  1871  1870  1871      1
  1872  1870  1873      1
  1873  1870  1874      1
  1874  1871  1872      1
  1875  1871  1875      1
  1876  1871  1876      1
  1877  1872  1877      1
  1878  1877  1878      1
  1879  1877  1880      1
  1880  1877  1881      1
  1881  1878  1879      1
  1882  1878  1882      1
  1883  1878  1883      1
  1884  1879  1884      1
  1885  1884  1885      1
  1886  1884  1887      1
  1887  1884  1888      1
  1888  1885  1886      1
  1889  1885  1889      1
  1890  1885  1890      1
  1891  1886  1891      1
  1892  1891  1892      1
  1893  1891  1894      1
  1894  1891  1895      1
  1895  1892  1893      1
  1896  1892  1896      1
  1897  1892  1897      1
  1898  1893  1898      1
  1899  1898  1899      1
  1900  1898  1901      1
  1901  1898  1902      1
  1902  1899  1900      1
  1903  1899  1903      1
  1904  1899  1904      1
  1905  1900  1905      1
  1906  1905  1906      1
  1907  1905  1908      1
  1908  1905  1909      1
  1909  1906  1907      1
  1910  1906  1910      1
  1911  1906  1911      1
  1912  1907  1912      1
  1913  1912  1913      1
  1914  1912  1915      1
  1915  1912  1916      1
  1916  1913  1914      1
  1917  1913  1917      1
  1918  1913  1918      1
  1919  1914  1919      1
  1920  1919  1920      1
  1921  1919  1922      1
  1922  1919  1923      1
  1923  1920  1921      1
  1924  1920  1924      1
  1925  1920  1925      1
  1926  1921  1926      1
  1927  1926  1927      1
  1928  1926  1929      1
  1929  1926  1930      1
  1930  1927  1928      1
  1931  1927  1931      1
  1932  1927  1932      1
  1933  1928  1933      1
  1934  1933  1934      1
  1935  1933  1936      1
  1936  1933  1937      1
  1937  1934  1935      1
  1938  1934  1938      1
  1939  1934  1939      1
  1940  1935  1940      1
  1941  1940  1941      1
  1942  1940  1943      1
  1943  1940  1944      1
  1944  1941  1942      1
  1945  1941  1945      1
  1946  1941  1946      1
  1947  1942  1947      1
  1948  1947  1948      1
  1949  1947  1950      1
  1950  1947  1951      1
  1951  1948  1949      1
  1952  1948  1952      1
  1953  1948  1953      1
  1954  1949  1954      1
  1955  1954  1955      1
  1956  1954  1957      1
  1957  1954  1958      1
  1958  1955  1956      1
  1959  1955  1959      1
  1960  1955  1960      1
  1961  1956  1961      1
  1962  1961  1962      1
  1963  1961  1964      1
  1964  1961  1965      1
  1965  1962  1963      1
  1966  1962  1966      1
  1967  1962  1967      1
  1968  1963  1968      1
  1969  1968  1969      1
  1970  1968  1971      1
  1971  1968  1972      1
  1972  1969  1970      1
  1973  1969  1973      1
  1974  1969  1974      1
  1975  1970  1975      1
  1976  1975  1976      1
  1977  1975  1978      1
  1978  1975  1979      1
  1979  1976  1977      1
  1980  1976  1980      1
  1981  1976  1981      1
  1982  1977  1982      1
  1983  1982  1983      1
  1984  1982  1985      1
  1985  1982  1986      1
  1986  1983  1984      1
  1987  1983  1987      1
  1988  1983  1988      1
  1989  1984  1989      1
  1990  1989  1990      1
  1991  1989  1992      1
  1992  1989  1993      1
  1993  1990  1991      1
  1994  1990  1994      1
  1995  1990  1995      1
  1996  1991  1996      1
  1997  1996  1997      1
  1998  1996  1999      1
  1999  1996  2000      1
  2000  1997  1998      1
  2001  1997  2001      1
  2002  1997  2002      1
  2003  1998  2003      1
  2004  2003  2004      1
  2005  2003  2006      1
  2006  2003  2007      1
  2007  2004  2005      1
  2008  2004  2008      1
  2009  2004  2009      1
  2010  2005  2010      1
  2011  2010  2011      1
  2012  2010  2013      1
  2013  2010  2014      1
  2014  2011  2012      1
  2015  2011  2015      1
  2016  2011  2016      1
  2017  2012  2017      1
  2018  2017  2018      1
  2019  2017  2020      1
  2020  2017  2021      1
  2021  2018  2019      1
  2022  2018  2022      1
  2023  2018  2023      1
  2024  2019  2024      1
  2025  2024  2025      1
  2026  2024  2027      1
  2027  2024  2028      1
  2028  2025  2026      1
  2029  2025  2029      1
  2030  2025  2030      1
  2031  2026  2031      1
  2032  2031  2032      1
  2033  2031  2034      1
  2034  2031  2035      1
  2035  2032  2033      1
  2036  2032  2036      1
  2037  2032  2037      1
  2038  2033  2038      1
  2039  2038  2039      1
  2040  2038  2041      1
  2041  2038  2042      1
  2042  2039  2040      1
  2043  2039  2043      1
  2044  2039  2044      1
  2045  2040  2045      1
  2046  2045  2046      1
  2047  2045  2048      1
  2048  2045  2049      1
  2049  2046  2047      1
  2050  2046  2050      1
  2051  2046  2051      1
  2052  2047  2052      1
  2053  2052  2053      1
  2054  2052  2055      1
  2055  2052  2056      1
  2056  2053  2054      1
  2057  2053  2057      1
  2058  2053  2058      1
  2059  2054  2059      1
  2060  2059  2060      1
  2061  2059  2062      1
  2062  2059  2063      1
  2063  2060  2061      1
  2064  2060  2064      1
  2065  2060  2065      1
  2066  2061  2066      1
  2067  2066  2067      1
  2068  2066  2069      1
  2069  2066  2070      1
  2070  2067  2068      1
  2071  2067  2071      1
  2072  2067  2072      1
  2073  2068  2073      1
  2074  2073  2074      1
  2075  2073  2076      1
  2076  2073  2077      1
  2077  2074  2075      1
  2078  2074  2078      1
  2079  2074  2079      1
  2080  2075  2080      1
  2081  2080  2081      1
  2082  2080  2083      1
  2083  2080  2084      1
  2084  2081  2082      1
  2085  2081  2085      1
  2086  2081  2086      1
  2087  2082  2087      1
  2088  2087  2088      1
  2089  2087  2090      1
  2090  2087  2091      1
  2091  2088  2089      1
  2092  2088  2092      1
  2093  2088  2093      1
  2094  2089  2094      1
  2095  2094  2095      1
  2096  2094  2097      1
  2097  2094  2098      1
  2098  2095  2096      1
  2099  2095  2099      1
  2100  2095  2100      1
  2101  2096  2101      1
  2102  2101  2102      1
  2103  2101  2104      1
  2104  2101  2105      1
  2105  2102  2103      1
  2106  2102  2106      1
  2107  2102  2107      1
  2108  2103  2108      1
  2109  2108  2109      1
  2110  2108  2111      1
  2111  2108  2112      1
  2112  2109  2110      1
  2113  2109  2113      1
  2114  2109  2114      1
  2115  2110  2115      1
  2116  2115  2116      1
  2117  2115  2118      1
  2118  2115  2119      1
  2119  2116  2117      1
  2120  2116  2120      1
  2121  2116  2121      1
  2122  2117  2122      1
  2123  2122  2123      1
  2124  2122  2125      1
  2125  2122  2126      1
  2126  2123  2124      1
  2127  2123  2127      1
  2128  2123  2128      1
  2129  2124  2129      1
  2130  2129  2130      1
  2131  2129  2132      1
  2132  2129  2133      1
  2133  2130  2131      1
  2134  2130  2134      1
  2135  2130  2135      1
  2136  2131  2136      1
  2137  2136  2137      1
  2138  2136  2139      1
  2139  2136  2140      1
  2140  2137  2138      1
  2141  2137  2141      1
  2142  2137  2142      1
  2143  2138  2143      1
  2144  2143  2144      1
  2145  2143  2146      1
  2146  2143  2147      1
  2147  2144  2145      1
  2148  2144  2148      1
  2149  2144  2149      1
  2150  2145  2150      1
  2151  2150  2151      1
  2152  2150  2153      1
  2153  2150  2154      1
  2154  2151  2152      1
  2155  2151  2155      1
  2156  2151  2156      1
  2157  2152  2157      1
  2158  2157  2158      1
  2159  2157  2160      1
  2160  2157  2161      1
  2161  2158  2159      1
  2162  2158  2162      1
  2163  2158  2163      1
  2164  2159  2164      1
  2165  2164  2165      1
  2166  2164  2167      1
  2167  2164  2168      1
  2168  2165  2166      1
  2169  2165  2169      1
  2170  2165  2170      1
  2171  2166  2171      1
  2172  2171  2172      1
  2173  2171  2174      1
  2174  2171  2175      1
  2175  2172  2173      1
  2176  2172  2176      1
  2177  2172  2177      1
  2178  2173  2178      1
  2179  2178  2179      1
  2180  2178  2181      1
  2181  2178  2182      1
  2182  2179  2180      1
  2183  2179  2183      1
  2184  2179  2184      1
  2185  2180  2185      1
  2186  2185  2186      1
  2187  2185  2188      1
  2188  2185  2189      1
  2189  2186  2187      1
  2190  2186  2190      1
  2191  2186  2191      1
  2192  2187  2192      1
  2193  2192  2193      1
  2194  2192  2195      1
  2195  2192  2196      1
  2196  2193  2194      1
  2197  2193  2197      1
  2198  2193  2198      1
  2199  2194  2199      1
  2200  2199  2200      1
  2201  2199  2202      1
  2202  2199  2203      1
  2203  2200  2201      1
  2204  2200  2204      1
  2205  2200  2205      1
  2206  2201  2206      1
  2207  2206  2207      1
  2208  2206  2209      1
  2209  2206  2210      1
  2210  2207  2208      1
  2211  2207  2211      1
  2212  2207  2212      1
  2213  2208  2213      1
  2214  2213  2214      1
  2215  2213  2216      1
  2216  2213  2217      1
  2217  2214  2215      1
  2218  2214  2218      1
  2219  2214  2219      1
  2220  2215  2220      1
  2221  2220  2221      1
  2222  2220  2223      1
  2223  2220  2224      1
  2224  2221  2222      1
  2225  2221  2225      1
  2226  2221  2226      1
  2227  2222  2227      1
  2228  2227  2228      1
  2229  2227  2230      1
  2230  2227  2231      1
  2231  2228  2229      1
  2232  2228  2232      1
  2233  2228  2233      1
  2234  2229  2234      1
  2235  2234  2235      1
  2236  2234  2237      1
  2237  2234  2238      1
  2238  2235  2236      1
  2239  2235  2239      1
  2240  2235  2240      1
  2241  2236  2241      1
  2242  2241  2242      1
  2243  2241  2244      1
  2244  2241  2245      1
  2245  2242  2243      1
  2246  2242  2246      1
  2247  2242  2247      1
  2248  2243  2248      1
  2249  2248  2249      1
  2250  2248  2251      1
  2251  2248  2252      1
  2252  2249  2250      1
  2253  2249  2253      1
  2254  2249  2254      1
  2255  2250  2255      1
  2256  2255  2256      1
  2257  2255  2258      1
  2258  2255  2259      1
  2259  2256  2257      1
  2260  2256  2260      1
  2261  2256  2261      1
  2262  2257  2262      1
  2263  2262  2263      1
  2264  2262  2265      1
  2265  2262  2266      1
  2266  2263  2264      1
  2267  2263  2267      1
  2268  2263  2268      1
  2269  2264  2269      1
  2270  2269  2270      1
  2271  2269  2272      1
  2272  2269  2273      1
  2273  2270  2271      1
  2274  2270  2274      1
  2275  2270  2275      1
  2276  2271  2276      1
  2277  2276  2277      1
  2278  2276  2279      1
  2279  2276  2280      1
  2280  2277  2278      1
  2281  2277  2281      1
  2282  2277  2282      1
  2283  2278  2283      1
  2284  2283  2284      1
  2285  2283  2286      1
  2286  2283  2287      1
  2287  2284  2285      1
  2288  2284  2288      1
  2289  2284  2289      1
  2290  2285  2290      1
  2291  2290  2291      1
  2292  2290  2293      1
  2293  2290  2294      1
  2294  2291  2292      1
  2295  2291  2295      1
  2296  2291  2296      1
  2297  2292  2297      1
  2298  2297  2298      1
  2299  2297  2300      1
  2300  2297  2301      1
  2301  2298  2299      1
  2302  2298  2302      1
  2303  2298  2303      1
  2304  2299  2304      1
  2305  2304  2305      1
  2306  2304  2307      1
  2307  2304  2308      1
  2308  2305  2306      1
  2309  2305  2309      1
  2310  2305  2310      1
  2311  2306  2311      1
  2312  2311  2312      1
  2313  2311  2314      1
  2314  2311  2315      1
  2315  2312  2313      1
  2316  2312  2316      1
  2317  2312  2317      1
  2318  2313  2318      1
  2319  2318  2319      1
  2320  2318  2321      1
  2321  2318  2322      1
  2322  2319  2320      1
  2323  2319  2323      1
  2324  2319  2324      1
  2325  2320  2325      1
  2326  2325  2326      1
  2327  2325  2328      1
  2328  2325  2329      1
  2329  2326  2327      1
  2330  2326  2330      1
  2331  2326  2331      1
  2332  2327  2332      1
  2333  2332  2333      1
  2334  2332  2335      1
  2335  2332  2336      1
  2336  2333  2334      1
  2337  2333  2337      1
  2338  2333  2338      1
  2339  2334  2339      1
  2340  2339  2340      1
  2341  2339  2342      1
  2342  2339  2343      1
  2343  2340  2341      1
  2344  2340  2344      1
  2345  2340  2345      1
  2346  2341  2346      1
  2347  2346  2347      1
  2348  2346  2349      1
  2349  2346  2350      1
  2350  2347  2348      1
  2351  2347  2351      1
  2352  2347  2352      1
  2353  2348  2353      1
  2354  2353  2354      1
  2355  2353  2356      1
  2356  2353  2357      1
  2357  2354  2355      1
  2358  2354  2358      1
  2359  2354  2359      1
  2360  2355  2360      1
  2361  2360  2361      1
  2362  2360  2363      1
  2363  2360  2364      1
  2364  2361  2362      1
  2365  2361  2365      1
  2366  2361  2366      1
  2367  2362  2367      1
  2368  2367  2368      1
  2369  2367  2370      1
  2370  2367  2371      1
  2371  2368  2369      1
  2372  2368  2372      1
  2373  2368  2373      1
  2374  2369  2374      1
  2375  2374  2375      1
  2376  2374  2377      1
  2377  2374  2378      1
  2378  2375  2376      1
  2379  2375  2379      1
  2380  2375  2380      1
  2381  2376  2381      1
  2382  2381  2382      1
  2383  2381  2384      1
  2384  2381  2385      1
  2385  2382  2383      1
  2386  2382  2386      1
  2387  2382  2387      1
  2388  2383  2388      1
  2389  2388  2389      1
  2390  2388  2391      1
  2391  2388  2392      1
  2392  2389  2390      1
  2393  2389  2393      1
  2394  2389  2394      1
  2395  2390  2395      1
  2396  2395  2396      1
  2397  2395  2398      1
  2398  2395  2399      1
  2399  2396  2397      1
  2400  2396  2400      1
  2401  2396  2401      1
  2402  2397  2402      1
  2403  2402  2403      1
  2404  2402  2405      1
  2405  2402  2406      1
  2406  2403  2404      1
  2407  2403  2407      1
  2408  2403  2408      1
  2409  2404  2409      1
  2410  2409  2410      1
  2411  2409  2412      1
  2412  2409  2413      1
  2413  2410  2411      1
  2414  2410  2414      1
  2415  2410  2415      1
  2416  2411  2416      1
  2417  2416  2417      1
  2418  2416  2419      1
  2419  2416  2420      1
  2420  2417  2418      1
  2421  2417  2421      1
  2422  2417  2422      1
  2423  2418  2423      1
  2424  2423  2424      1
  2425  2423  2426      1
  2426  2423  2427      1
  2427  2424  2425      1
  2428  2424  2428      1
  2429  2424  2429      1
  2430  2425  2430      1
  2431  2430  2431      1
  2432  2430  2433      1
  2433  2430  2434      1
  2434  2431  2432      1
  2435  2431  2435      1
  2436  2431  2436      1
  2437  2432  2437      1
  2438  2437  2438      1
  2439  2437  2440      1
  2440  2437  2441      1
  2441  2438  2439      1
  2442  2438  2442      1
  2443  2438  2443      1
  2444  2439  2444      1
  2445  2444  2445      1
  2446  2444  2447      1
  2447  2444  2448      1
  2448  2445  2446      1
  2449  2445  2449      1
  2450  2445  2450      1
  2451  2446  2451      1
  2452  2451  2452      1
  2453  2451  2454      1
  2454  2451  2455      1
  2455  2452  2453      1
  2456  2452  2456      1
  2457  2452  2457      1
  2458  2453  2458      1
  2459  2458  2459      1
  2460  2458  2461      1
  2461  2458  2462      1
  2462  2459  2460      1
  2463  2459  2463      1
  2464  2459  2464      1
  2465  2460  2465      1
  2466  2465  2466      1
  2467  2465  2468      1
  2468  2465  2469      1
  2469  2466  2467      1
  2470  2466  2470      1
  2471  2466  2471      1
  2472  2467  2472      1
  2473  2472  2473      1
  2474  2472  2475      1
  2475  2472  2476      1
  2476  2473  2474      1
  2477  2473  2477      1
  2478  2473  2478      1
  2479  2474  2479      1
  2480  2479  2480      1
  2481  2479  2482      1
  2482  2479  2483      1
  2483  2480  2481      1
  2484  2480  2484      1
  2485  2480  2485      1
  2486  2481  2486      1
  2487  2486  2487      1
  2488  2486  2489      1
  2489  2486  2490      1
  2490  2487  2488      1
  2491  2487  2491      1
  2492  2487  2492      1
  2493  2488  2493      1
  2494  2493  2494      1
  2495  2493  2496      1
  2496  2493  2497      1
  2497  2494  2495      1
  2498  2494  2498      1
  2499  2494  2499      1
  2500  2495  2500      1
  2501  2500  2501      1
  2502  2500  2503      1
  2503  2500  2504      1
  2504  2501  2502      1
  2505  2501  2505      1
  2506  2501  2506      1
  2507  2502  2507      1
  2508  2507  2508      1
  2509  2507  2510      1
  2510  2507  2511      1
  2511  2508  2509      1
  2512  2508  2512      1
  2513  2508  2513      1
  2514  2509  2514      1
  2515  2514  2515      1
  2516  2514  2517      1
  2517  2514  2518      1
  2518  2515  2516      1
  2519  2515  2519      1
  2520  2515  2520      1
  2521  2516  2521      1
  2522  2521  2522      1
  2523  2521  2524      1
  2524  2521  2525      1
  2525  2522  2523      1
  2526  2522  2526      1
  2527  2522  2527      1
  2528  2523  2528      1
  2529  2528  2529      1
  2530  2528  2531      1
  2531  2528  2532      1
  2532  2529  2530      1
  2533  2529  2533      1
  2534  2529  2534      1
  2535  2530  2535      1
  2536  2535  2536      1
  2537  2535  2538      1
  2538  2535  2539      1
  2539  2536  2537      1
  2540  2536  2540      1
  2541  2536  2541      1
  2542  2537  2542      1
  2543  2542  2543      1
  2544  2542  2545      1
  2545  2542  2546      1
  2546  2543  2544      1
  2547  2543  2547      1
  2548  2543  2548      1
  2549  2544  2549      1
  2550  2549  2550      1
  2551  2549  2552      1
  2552  2549  2553      1
  2553  2550  2551      1
  2554  2550  2554      1
  2555  2550  2555      1
  2556  2551  2556      1
  2557  2556  2557      1
  2558  2556  2559      1
  2559  2556  2560      1
  2560  2557  2558      1
  2561  2557  2561      1
  2562  2557  2562      1
  2563  2558  2563      1
  2564  2563  2564      1
  2565  2563  2566      1
  2566  2563  2567      1
  2567  2564  2565      1
  2568  2564  2568      1
  2569  2564  2569      1
  2570  2565  2570      1
  2571  2570  2571      1
  2572  2570  2573      1
  2573  2570  2574      1
  2574  2571  2572      1
  2575  2571  2575      1
  2576  2571  2576      1
  2577  2572  2577      1
  2578  2577  2578      1
  2579  2577  2580      1
  2580  2577  2581      1
  2581  2578  2579      1
  2582  2578  2582      1
  2583  2578  2583      1
  2584  2579  2584      1
  2585  2584  2585      1
  2586  2584  2587      1
  2587  2584  2588      1
  2588  2585  2586      1
  2589  2585  2589      1
  2590  2585  2590      1
  2591  2586  2591      1
  2592  2591  2592      1
  2593  2591  2594      1
  2594  2591  2595      1
  2595  2592  2593      1
  2596  2592  2596      1
  2597  2592  2597      1
  2598  2593  2598      1
  2599  2598  2599      1
  2600  2598  2601      1
  2601  2598  2602      1
  2602  2599  2600      1
  2603  2599  2603      1
  2604  2599  2604      1
  2605  2600  2605      1
  2606  2605  2606      1
  2607  2605  2608      1
  2608  2605  2609      1
  2609  2606  2607      1
  2610  2606  2610      1
  2611  2606  2611      1
  2612  2607  2612      1
  2613  2612  2613      1
  2614  2612  2615      1
  2615  2612  2616      1
  2616  2613  2614      1
  2617  2613  2617      1
  2618  2613  2618      1
  2619  2614  2619      1
  2620  2619  2620      1
  2621  2619  2622      1
  2622  2619  2623      1
  2623  2620  2621      1
  2624  2620  2624      1
  2625  2620  2625      1
  2626  2621  2626      1
  2627  2626  2627      1
  2628  2626  2629      1
  2629  2626  2630      1
  2630  2627  2628      1
  2631  2627  2631      1
  2632  2627  2632      1
  2633  2628  2633      1
  2634  2633  2634      1
  2635  2633  2636      1
  2636  2633  2637      1
  2637  2634  2635      1
  2638  2634  2638      1
  2639  2634  2639      1
  2640  2635  2640      1
  2641  2640  2641      1
  2642  2640  2643      1
  2643  2640  2644      1
  2644  2641  2642      1
  2645  2641  2645      1
  2646  2641  2646      1
  2647  2642  2647      1
  2648  2647  2648      1
  2649  2647  2650      1
  2650  2647  2651      1
  2651  2648  2649      1
  2652  2648  2652      1
  2653  2648  2653      1
  2654  2649  2654      1
  2655  2654  2655      1
  2656  2654  2657      1
  2657  2654  2658      1
  2658  2655  2656      1
  2659  2655  2659      1
  2660  2655  2660      1
  2661  2656  2661      1
  2662  2661  2662      1
  2663  2661  2664      1
  2664  2661  2665      1
  2665  2662  2663      1
  2666  2662  2666      1
  2667  2662  2667      1
  2668  2663  2668      1
  2669  2668  2669      1
  2670  2668  2671      1
  2671  2668  2672      1
  2672  2669  2670      1
  2673  2669  2673      1
  2674  2669  2674      1
  2675  2670  2675      1
  2676  2675  2676      1
  2677  2675  2678      1
  2678  2675  2679      1
  2679  2676  2677      1
  2680  2676  2680      1
  2681  2676  2681      1
  2682  2677  2682      1
  2683  2682  2683      1
  2684  2682  2685      1
  2685  2682  2686      1
  2686  2683  2684      1
  2687  2683  2687      1
  2688  2683  2688      1
  2689  2684  2689      1
  2690  2689  2690      1
  2691  2689  2692      1
  2692  2689  2693      1
  2693  2690  2691      1
  2694  2690  2694      1
  2695  2690  2695      1
  2696  2691  2696      1
  2697  2696  2697      1
  2698  2696  2699      1
  2699  2696  2700      1
  2700  2697  2698      1
  2701  2697  2701      1
  2702  2697  2702      1
  2703  2698  2703      1
  2704  2703  2704      1
  2705  2703  2706      1
  2706  2703  2707      1
  2707  2704  2705      1
  2708  2704  2708      1
  2709  2704  2709      1
  2710  2705  2710      1
  2711  2710  2711      1
  2712  2710  2713      1
  2713  2710  2714      1
  2714  2711  2712      1
  2715  2711  2715      1
  2716  2711  2716      1
  2717  2712  2717      1
  2718  2717  2718      1
  2719  2717  2720      1
  2720  2717  2721      1
  2721  2718  2719      1
  2722  2718  2722      1
  2723  2718  2723      1
  2724  2719  2724      1
  2725  2724  2725      1
  2726  2724  2727      1
  2727  2724  2728      1
  2728  2725  2726      1
  2729  2725  2729      1
  2730  2725  2730      1
  2731  2726  2731      1
  2732  2731  2732      1
  2733  2731  2734      1
  2734  2731  2735      1
  2735  2732  2733      1
  2736  2732  2736      1
  2737  2732  2737      1
  2738  2733  2738      1
  2739  2738  2739      1
  2740  2738  2741      1
  2741  2738  2742      1
  2742  2739  2740      1
  2743  2739  2743      1
  2744  2739  2744      1
  2745  2740  2745      1
  2746  2745  2746      1
  2747  2745  2748      1
  2748  2745  2749      1
  2749  2746  2747      1
  2750  2746  2750      1
  2751  2746  2751      1
  2752  2747  2752      1
  2753  2752  2753      1
  2754  2752  2755      1
  2755  2752  2756      1
  2756  2753  2754      1
  2757  2753  2757      1
  2758  2753  2758      1
  2759  2754  2759      1
  2760  2759  2760      1
  2761  2759  2762      1
  2762  2759  2763      1
  2763  2760  2761      1
  2764  2760  2764      1
  2765  2760  2765      1
  2766  2761  2766      1
  2767  2766  2767      1
  2768  2766  2769      1
  2769  2766  2770      1
  2770  2767  2768      1
  2771  2767  2771      1
  2772  2767  2772      1
  2773  2768  2773      1
  2774  2773  2774      1
  2775  2773  2776      1
  2776  2773  2777      1
  2777  2774  2775      1
  2778  2774  2778      1
  2779  2774  2779      1
  2780  2775  2780      1
  2781  2780  2781      1
  2782  2780  2783      1
  2783  2780  2784      1
  2784  2781  2782      1
  2785  2781  2785      1
  2786  2781  2786      1
  2787  2782  2787      1
  2788  2787  2788      1
  2789  2787  2790      1
  2790  2787  2791      1
  2791  2788  2789      1
  2792  2788  2792      1
  2793  2788  2793      1
  2794  2789  2794      1
  2795  2794  2795      1
  2796  2794  2797      1
  2797  2794  2798      1
  2798  2795  2796      1
  2799  2795  2799      1
  2800  2795  2800      1
  2801  2796  2801      1
  2802  2801  2802      1
  2803  2801  2804      1
  2804  2801  2805      1
  2805  2802  2803      1
  2806  2802  2806      1
  2807  2802  2807      1
  2808  2803  2808      1
  2809  2808  2809      1
  2810  2808  2811      1
  2811  2808  2812      1
  2812  2809  2810      1
  2813  2809  2813      1
  2814  2809  2814      1
  2815  2810  2815      1
  2816  2815  2816      1
  2817  2815  2818      1
  2818  2815  2819      1
  2819  2816  2817      1
  2820  2816  2820      1
  2821  2816  2821      1
  2822  2817  2822      1
  2823  2822  2823      1
  2824  2822  2825      1
  2825  2822  2826      1
  2826  2823  2824      1
  2827  2823  2827      1
  2828  2823  2828      1
  2829  2824  2829      1
  2830  2829  2830      1
  2831  2829  2832      1
  2832  2829  2833      1
  2833  2830  2831      1
  2834  2830  2834      1
  2835  2830  2835      1
  2836  2831  2836      1
  2837  2836  2837      1
  2838  2836  2839      1
  2839  2836  2840      1
  2840  2837  2838      1
  2841  2837  2841      1
  2842  2837  2842      1
  2843  2838  2843      1
  2844  2843  2844      1
  2845  2843  2846      1
  2846  2843  2847      1
  2847  2844  2845      1
  2848  2844  2848      1
  2849  2844  2849      1
  2850  2845  2850      1
  2851  2850  2851      1
  2852  2850  2853      1
  2853  2850  2854      1
  2854  2851  2852      1
  2855  2851  2855      1
  2856  2851  2856      1
  2857  2852  2857      1
  2858  2857  2858      1
  2859  2857  2860      1
  2860  2857  2861      1
  2861  2858  2859      1
  2862  2858  2862      1
  2863  2858  2863      1
  2864  2859  2864      1
  2865  2864  2865      1
  2866  2864  2867      1
  2867  2864  2868      1
  2868  2865  2866      1
  2869  2865  2869      1
  2870  2865  2870      1
  2871  2866  2871      1
  2872  2871  2872      1
  2873  2871  2874      1
  2874  2871  2875      1
  2875  2872  2873      1
  2876  2872  2876      1
  2877  2872  2877      1
  2878  2873  2878      1
  2879  2878  2879      1
  2880  2878  2881      1
  2881  2878  2882      1
  2882  2879  2880      1
  2883  2879  2883      1
  2884  2879  2884      1
  2885  2880  2885      1
  2886  2885  2886      1
  2887  2885  2888      1
  2888  2885  2889      1
  2889  2886  2887      1
  2890  2886  2890      1
  2891  2886  2891      1
  2892  2887  2892      1
  2893  2892  2893      1
  2894  2892  2895      1
  2895  2892  2896      1
  2896  2893  2894      1
  2897  2893  2897      1
  2898  2893  2898      1
  2899  2894  2899      1
  2900  2899  2900      1
  2901  2899  2902      1
  2902  2899  2903      1
  2903  2900  2901      1
  2904  2900  2904      1
  2905  2900  2905      1
  2906  2901  2906      1
  2907  2906  2907      1
  2908  2906  2909      1
  2909  2906  2910      1
  2910  2907  2908      1
  2911  2907  2911      1
  2912  2907  2912      1
  2913  2908  2913      1
  2914  2913  2914      1
  2915  2913  2916      1
  2916  2913  2917      1
  2917  2914  2915      1
  2918  2914  2918      1
  2919  2914  2919      1
  2920  2915  2920      1
  2921  2920  2921      1
  2922  2920  2923      1
  2923  2920  2924      1
  2924  2921  2922      1
  2925  2921  2925      1
  2926  2921  2926      1
  2927  2922  2927      1
  2928  2927  2928      1
  2929  2927  2930      1
  2930  2927  2931      1
  2931  2928  2929      1
  2932  2928  2932      1
  2933  2928  2933      1
  2934  2929  2934      1
  2935  2934  2935      1
  2936  2934  2937      1
  2937  2934  2938      1
  2938  2935  2936      1
  2939  2935  2939      1
  2940  2935  2940      1
  2941  2936  2941      1
  2942  2941  2942      1
  2943  2941  2944      1
  2944  2941  2945      1
  2945  2942  2943      1
  2946  2942  2946      1
  2947  2942  2947      1
  2948  2943  2948      1
  2949  2948  2949      1
  2950  2948  2951      1
  2951  2948  2952      1
  2952  2949  2950      1
  2953  2949  2953      1
  2954  2949  2954      1
  2955  2950  2955      1
  2956  2955  2956      1
  2957  2955  2958      1
  2958  2955  2959      1
  2959  2956  2957      1
  2960  2956  2960      1
  2961  2956  2961      1
  2962  2957  2962      1
  2963  2962  2963      1
  2964  2962  2965      1
  2965  2962  2966      1
  2966  2963  2964      1
  2967  2963  2967      1
  2968  2963  2968      1
  2969  2964  2969      1
  2970  2969  2970      1
  2971  2969  2972      1
  2972  2969  2973      1
  2973  2970  2971      1
  2974  2970  2974      1
  2975  2970  2975      1
  2976  2971  2976      1
  2977  2976  2977      1
  2978  2976  2979      1
  2979  2976  2980      1
  2980  2977  2978      1
  2981  2977  2981      1
  2982  2977  2982      1
  2983  2978  2983      1
  2984  2983  2984      1
  2985  2983  2986      1
  2986  2983  2987      1
  2987  2984  2985      1
  2988  2984  2988      1
  2989  2984  2989      1
  2990  2985  2990      1
  2991  2990  2991      1
  2992  2990  2993      1
  2993  2990  2994      1
  2994  2991  2992      1
  2995  2991  2995      1
  2996  2991  2996      1
  2997  2992  2997      1
  2998  2997  2998      1
  2999  2997  3000      1
  3000  2997  3001      1
  3001  2998  2999      1
  3002  2998  3002      1
  3003  2998  3003      1
  3004  2999  3004      1
  3005  3004  3005      1
  3006  3004  3007      1
  3007  3004  3008      1
  3008  3005  3006      1
  3009  3005  3009      1
  3010  3005  3010      1
  3011  3006  3011      1
  3012  3011  3012      1
  3013  3011  3014      1
  3014  3011  3015      1
  3015  3012  3013      1
  3016  3012  3016      1
  3017  3012  3017      1
  3018  3013  3018      1
  3019  3018  3019      1
  3020  3018  3021      1
  3021  3018  3022      1
  3022  3019  3020      1
  3023  3019  3023      1
  3024  3019  3024      1
  3025  3020  3025      1
  3026  3025  3026      1
  3027  3025  3028      1
  3028  3025  3029      1
  3029  3026  3027      1
  3030  3026  3030      1
  3031  3026  3031      1
  3032  3027  3032      1
  3033  3032  3033      1
  3034  3032  3035      1
  3035  3032  3036      1
  3036  3033  3034      1
  3037  3033  3037      1
  3038  3033  3038      1
  3039  3034  3039      1
  3040  3039  3040      1
  3041  3039  3042      1
  3042  3039  3043      1
  3043  3040  3041      1
  3044  3040  3044      1
  3045  3040  3045      1
  3046  3041  3046      1
  3047  3046  3047      1
  3048  3046  3049      1
  3049  3046  3050      1
  3050  3047  3048      1
  3051  3047  3051      1
  3052  3047  3052      1
  3053  3048  3053      1
  3054  3053  3054      1
  3055  3053  3056      1
  3056  3053  3057      1
  3057  3054  3055      1
  3058  3054  3058      1
  3059  3054  3059      1
  3060  3055  3060      1
  3061  3060  3061      1
  3062  3060  3063      1
  3063  3060  3064      1
  3064  3061  3062      1
  3065  3061  3065      1
  3066  3061  3066      1
  3067  3062  3067      1
  3068  3067  3068      1
  3069  3067  3070      1
  3070  3067  3071      1
  3071  3068  3069      1
  3072  3068  3072      1
  3073  3068  3073      1
  3074  3069  3074      1
  3075  3074  3075      1
  3076  3074  3077      1
  3077  3074  3078      1
  3078  3075  3076      1
  3079  3075  3079      1
  3080  3075  3080      1
  3081  3076  3081      1
  3082  3081  3082      1
  3083  3081  3084      1
  3084  3081  3085      1
  3085  3082  3083      1
  3086  3082  3086      1
  3087  3082  3087      1
  3088  3083  3088      1
  3089  3088  3089      1
  3090  3088  3091      1
  3091  3088  3092      1
  3092  3089  3090      1
  3093  3089  3093      1
  3094  3089  3094      1
  3095  3090  3095      1
  3096  3095  3096      1
  3097  3095  3098      1
  3098  3095  3099      1
  3099  3096  3097      1
  3100  3096  3100      1
  3101  3096  3101      1
  3102  3097  3102      1
  3103  3102  3103      1
  3104  3102  3105      1
  3105  3102  3106      1
  3106  3103  3104      1
  3107  3103  3107      1
  3108  3103  3108      1
  3109  3104  3109      1
  3110  3109  3110      1
  3111  3109  3112      1
  3112  3109  3113      1
  3113  3110  3111      1
  3114  3110  3114      1
  3115  3110  3115      1
  3116  3111  3116      1
  3117  3116  3117      1
  3118  3116  3119      1
  3119  3116  3120      1
  3120  3117  3118      1
  3121  3117  3121      1
  3122  3117  3122      1
  3123  3118  3123      1
  3124  3123  3124      1
  3125  3123  3126      1
  3126  3123  3127      1
  3127  3124  3125      1
  3128  3124  3128      1
  3129  3124  3129      1
  3130  3125  3130      1
  3131  3130  3131      1
  3132  3130  3133      1
  3133  3130  3134      1
  3134  3131  3132      1
  3135  3131  3135      1
  3136  3131  3136      1
  3137  3132  3137      1
  3138  3137  3138      1
  3139  3137  3140      1
  3140  3137  3141      1
  3141  3138  3139      1
  3142  3138  3142      1
  3143  3138  3143      1
  3144  3139  3144      1
  3145  3144  3145      1
  3146  3144  3147      1
  3147  3144  3148      1
  3148  3145  3146      1
  3149  3145  3149      1
  3150  3145  3150      1
  3151  3146  3151      1
  3152  3151  3152      1
  3153  3151  3154      1
  3154  3151  3155      1
  3155  3152  3153      1
  3156  3152  3156      1
  3157  3152  3157      1
  3158  3153  3158      1
  3159  3158  3159      1
  3160  3158  3161      1
  3161  3158  3162      1
  3162  3159  3160      1
  3163  3159  3163      1
  3164  3159  3164      1
  3165  3160  3165      1
  3166  3165  3166      1
  3167  3165  3168      1
  3168  3165  3169      1
  3169  3166  3167      1
  3170  3166  3170      1
  3171  3166  3171      1
  3172  3167  3172      1
  3173  3172  3173      1
  3174  3172  3175      1
  3175  3172  3176      1
  3176  3173  3174      1
  3177  3173  3177      1
  3178  3173  3178      1
  3179  3174  3179      1
  3180  3179  3180      1
  3181  3179  3182      1
  3182  3179  3183      1
  3183  3180  3181      1
  3184  3180  3184      1
  3185  3180  3185      1
  3186  3181  3186      1
  3187  3186  3187      1
  3188  3186  3189      1
  3189  3186  3190      1
  3190  3187  3188      1
  3191  3187  3191      1
  3192  3187  3192      1
  3193  3188  3193      1
  3194  3193  3194      1
  3195  3193  3196      1
  3196  3193  3197      1
  3197  3194  3195      1
  3198  3194  3198      1
  3199  3194  3199      1
  3200  3195  3200      1
  3201  3200  3201      1
  3202  3200  3203      1
  3203  3200  3204      1
  3204  3201  3202      1
  3205  3201  3205      1
  3206  3201  3206      1
  3207  3202  3207      1
  3208  3207  3208      1
  3209  3207  3210      1
  3210  3207  3211      1
  3211  3208  3209      1
  3212  3208  3212      1
  3213  3208  3213      1
  3214  3209  3214      1
  3215  3214  3215      1
  3216  3214  3217      1
  3217  3214  3218      1
  3218  3215  3216      1
  3219  3215  3219      1
  3220  3215  3220      1
  3221  3216  3221      1
  3222  3221  3222      1
  3223  3221  3224      1
  3224  3221  3225      1
  3225  3222  3223      1
  3226  3222  3226      1
  3227  3222  3227      1
  3228  3223  3228      1
  3229  3228  3229      1
  3230  3228  3231      1
  3231  3228  3232      1
  3232  3229  3230      1
  3233  3229  3233      1
  3234  3229  3234      1
  3235  3230  3235      1
  3236  3235  3236      1
  3237  3235  3238      1
  3238  3235  3239      1
  3239  3236  3237      1
  3240  3236  3240      1
  3241  3236  3241      1
  3242  3237  3242      1
  3243  3242  3243      1
  3244  3242  3245      1
  3245  3242  3246      1
  3246  3243  3244      1
  3247  3243  3247      1
  3248  3243  3248      1
  3249  3244  3249      1
  3250  3249  3250      1
  3251  3249  3252      1
  3252  3249  3253      1
  3253  3250  3251      1
  3254  3250  3254      1
  3255  3250  3255      1
  3256  3251  3256      1
  3257  3256  3257      1
  3258  3256  3259      1
  3259  3256  3260      1
  3260  3257  3258      1
  3261  3257  3261      1
  3262  3257  3262      1
  3263  3258  3263      1
  3264  3263  3264      1
  3265  3263  3266      1
  3266  3263  3267      1
  3267  3264  3265      1
  3268  3264  3268      1
  3269  3264  3269      1
  3270  3265  3270      1
  3271  3270  3271      1
  3272  3270  3273      1
  3273  3270  3274      1
  3274  3271  3272      1
  3275  3271  3275      1
  3276  3271  3276      1
  3277  3272  3277      1
  3278  3277  3278      1
  3279  3277  3280      1
  3280  3277  3281      1
  3281  3278  3279      1
  3282  3278  3282      1
  3283  3278  3283      1
  3284  3279  3284      1
  3285  3284  3285      1
  3286  3284  3287      1
  3287  3284  3288      1
  3288  3285  3286      1
  3289  3285  3289      1
  3290  3285  3290      1
  3291  3286  3291      1
  3292  3291  3292      1
  3293  3291  3294      1
  3294  3291  3295      1
  3295  3292  3293      1
  3296  3292  3296      1
  3297  3292  3297      1
  3298  3293  3298      1
  3299  3298  3299      1
  3300  3298  3301      1
  3301  3298  3302      1
  3302  3299  3300      1
  3303  3299  3303      1
  3304  3299  3304      1
  3305  3300  3305      1
  3306  3305  3306      1
  3307  3305  3308      1
  3308  3305  3309      1
  3309  3306  3307      1
  3310  3306  3310      1
  3311  3306  3311      1
  3312  3307  3312      1
  3313  3312  3313      1
  3314  3312  3315      1
  3315  3312  3316      1
  3316  3313  3314      1
  3317  3313  3317      1
  3318  3313  3318      1
  3319  3314  3319      1
  3320  3319  3320      1
  3321  3319  3322      1
  3322  3319  3323      1
  3323  3320  3321      1
  3324  3320  3324      1
  3325  3320  3325      1
  3326  3321  3326      1
  3327  3326  3327      1
  3328  3326  3329      1
  3329  3326  3330      1
  3330  3327  3328      1
  3331  3327  3331      1
  3332  3327  3332      1
  3333  3328  3333      1
  3334  3333  3334      1
  3335  3333  3336      1
  3336  3333  3337      1
  3337  3334  3335      1
  3338  3334  3338      1
  3339  3334  3339      1
  3340  3335  3340      1
  3341  3340  3341      1
  3342  3340  3343      1
  3343  3340  3344      1
  3344  3341  3342      1
  3345  3341  3345      1
  3346  3341  3346      1
  3347  3342  3347      1
  3348  3347  3348      1
  3349  3347  3350      1
  3350  3347  3351      1
  3351  3348  3349      1
  3352  3348  3352      1
  3353  3348  3353      1
  3354  3349  3354      1
  3355  3354  3355      1
  3356  3354  3357      1
  3357  3354  3358      1
  3358  3355  3356      1
  3359  3355  3359      1
  3360  3355  3360      1
  3361  3356  3361      1
  3362  3361  3362      1
  3363  3361  3364      1
  3364  3361  3365      1
  3365  3362  3363      1
  3366  3362  3366      1
  3367  3362  3367      1
  3368  3363  3368      1
  3369  3368  3369      1
  3370  3368  3371      1
  3371  3368  3372      1
  3372  3369  3370      1
  3373  3369  3373      1
  3374  3369  3374      1
  3375  3370  3375      1
  3376  3375  3376      1
  3377  3375  3378      1
  3378  3375  3379      1
  3379  3376  3377      1
  3380  3376  3380      1
  3381  3376  3381      1
  3382  3377  3382      1
  3383  3382  3383      1
  3384  3382  3385      1
  3385  3382  3386      1
  3386  3383  3384      1
  3387  3383  3387      1
  3388  3383  3388      1
  3389  3384  3389      1
  3390  3389  3390      1
  3391  3389  3392      1
  3392  3389  3393      1
  3393  3390  3391      1
  3394  3390  3394      1
  3395  3390  3395      1
  3396  3391  3396      1
  3397  3396  3397      1
  3398  3396  3399      1
  3399  3396  3400      1
  3400  3397  3398      1
  3401  3397  3401      1
  3402  3397  3402      1
  3403  3398  3403      1
  3404  3403  3404      1
  3405  3403  3406      1
  3406  3403  3407      1
  3407  3404  3405      1
  3408  3404  3408      1
  3409  3404  3409      1
  3410  3405  3410      1
  3411  3410  3411      1
  3412  3410  3413      1
  3413  3410  3414      1
  3414  3411  3412      1
  3415  3411  3415      1
  3416  3411  3416      1
  3417  3412  3417      1
  3418  3417  3418      1
  3419  3417  3420      1
  3420  3417  3421      1
  3421  3418  3419      1
  3422  3418  3422      1
  3423  3418  3423      1
  3424  3419  3424      1
  3425  3424  3425      1
  3426  3424  3427      1
  3427  3424  3428      1
  3428  3425  3426      1
  3429  3425  3429      1
  3430  3425  3430      1
  3431  3426  3431      1
  3432  3431  3432      1
  3433  3431  3434      1
  3434  3431  3435      1
  3435  3432  3433      1
  3436  3432  3436      1
  3437  3432  3437      1
  3438  3433  3438      1
  3439  3438  3439      1
  3440  3438  3441      1
  3441  3438  3442      1
  3442  3439  3440      1
  3443  3439  3443      1
  3444  3439  3444      1
  3445  3440  3445      1
  3446  3445  3446      1
  3447  3445  3448      1
  3448  3445  3449      1
  3449  3446  3447      1
  3450  3446  3450      1
  3451  3446  3451      1
  3452  3447  3452      1
  3453  3452  3453      1
  3454  3452  3455      1
  3455  3452  3456      1
  3456  3453  3454      1
  3457  3453  3457      1
  3458  3453  3458      1
  3459  3454  3459      1
  3460  3459  3460      1
  3461  3459  3462      1
  3462  3459  3463      1
  3463  3460  3461      1
  3464  3460  3464      1
  3465  3460  3465      1
  3466  3461  3466      1
  3467  3466  3467      1
  3468  3466  3469      1
  3469  3466  3470      1
  3470  3467  3468      1
  3471  3467  3471      1
  3472  3467  3472      1
  3473  3468  3473      1
  3474  3473  3474      1
  3475  3473  3476      1
  3476  3473  3477      1
  3477  3474  3475      1
  3478  3474  3478      1
  3479  3474  3479      1
  3480  3475  3480      1
  3481  3480  3481      1
  3482  3480  3483      1
  3483  3480  3484      1
  3484  3481  3482      1
  3485  3481  3485      1
  3486  3481  3486      1
  3487  3482  3487      1
  3488  3487  3488      1
  3489  3487  3490      1
  3490  3487  3491      1
  3491  3488  3489      1
  3492  3488  3492      1
  3493  3488  3493      1
  3494  3489  3494      1
  3495  3494  3495      1
  3496  3494  3497      1
  3497  3494  3498      1
  3498  3495  3496      1
  3499  3495  3499      1
  3500  3495  3500      1
  3501  3496  3501      1
  3502  3501  3502      1
  3503  3501  3504      1
  3504  3501  3505      1
  3505  3502  3503      1
  3506  3502  3506      1
  3507  3502  3507      1
  3508  3503  3508      1
  3509  3508  3509      1
  3510  3508  3511      1
  3511  3508  3512      1
  3512  3509  3510      1
  3513  3509  3513      1
  3514  3509  3514      1
  3515  3510  3515      1
  3516  3515  3516      1
  3517  3515  3518      1
  3518  3515  3519      1
  3519  3516  3517      1
  3520  3516  3520      1
  3521  3516  3521      1
  3522  3517  3522      1
  3523  3522  3523      1
  3524  3522  3525      1
  3525  3522  3526      1
  3526  3523  3524      1
  3527  3523  3527      1
  3528  3523  3528      1
  3529  3524  3529      1
  3530  3529  3530      1
  3531  3529  3532      1
  3532  3529  3533      1
  3533  3530  3531      1
  3534  3530  3534      1
  3535  3530  3535      1
  3536  3531  3536      1
  3537  3536  3537      1
  3538  3536  3539      1
  3539  3536  3540      1
  3540  3537  3538      1
  3541  3537  3541      1
  3542  3537  3542      1
  3543  3538  3543      1
  3544  3543  3544      1
  3545  3543  3546      1
  3546  3543  3547      1
  3547  3544  3545      1
  3548  3544  3548      1
  3549  3544  3549      1
  3550  3545  3550      1
  3551  3550  3551      1
  3552  3550  3553      1
  3553  3550  3554      1
  3554  3551  3552      1
  3555  3551  3555      1
  3556  3551  3556      1
  3557  3552  3557      1
  3558  3557  3558      1
  3559  3557  3560      1
  3560  3557  3561      1
  3561  3558  3559      1
  3562  3558  3562      1
  3563  3558  3563      1
  3564  3559  3564      1
  3565  3564  3565      1
  3566  3564  3567      1
  3567  3564  3568      1
  3568  3565  3566      1
  3569  3565  3569      1
  3570  3565  3570      1
  3571  3566  3571      1
  3572  3571  3572      1
  3573  3571  3574      1
  3574  3571  3575      1
  3575  3572  3573      1
  3576  3572  3576      1
  3577  3572  3577      1
  3578  3573  3578      1
  3579  3578  3579      1
  3580  3578  3581      1
  3581  3578  3582      1
  3582  3579  3580      1
  3583  3579  3583      1
  3584  3579  3584      1
  3585  3580  3585      1
  3586  3585  3586      1
  3587  3585  3588      1
  3588  3585  3589      1
  3589  3586  3587      1
  3590  3586  3590      1
  3591  3586  3591      1
  3592  3587  3592      1
  3593  3592  3593      1
  3594  3592  3595      1
  3595  3592  3596      1
  3596  3593  3594      1
  3597  3593  3597      1
  3598  3593  3598      1
  3599  3594  3599      1
  3600  3599  3600      1
  3601  3599  3602      1
  3602  3599  3603      1
  3603  3600  3601      1
  3604  3600  3604      1
  3605  3600  3605      1
  3606  3601  3606      1
  3607  3606  3607      1
  3608  3606  3609      1
  3609  3606  3610      1
  3610  3607  3608      1
  3611  3607  3611      1
  3612  3607  3612      1
  3613  3608  3613      1
  3614  3613  3614      1
  3615  3613  3616      1
  3616  3613  3617      1
  3617  3614  3615      1
  3618  3614  3618      1
  3619  3614  3619      1
  3620  3615  3620      1
  3621  3620  3621      1
  3622  3620  3623      1
  3623  3620  3624      1
  3624  3621  3622      1
  3625  3621  3625      1
  3626  3621  3626      1
  3627  3622  3627      1
  3628  3627  3628      1
  3629  3627  3630      1
  3630  3627  3631      1
  3631  3628  3629      1
  3632  3628  3632      1
  3633  3628  3633      1
  3634  3629  3634      1
  3635  3634  3635      1
  3636  3634  3637      1
  3637  3634  3638      1
  3638  3635  3636      1
  3639  3635  3639      1
  3640  3635  3640      1
  3641  3636  3641      1
  3642  3641  3642      1
  3643  3641  3644      1
  3644  3641  3645      1
  3645  3642  3643      1
  3646  3642  3646      1
  3647  3642  3647      1
  3648  3643  3648      1
  3649  3648  3649      1
  3650  3648  3651      1
  3651  3648  3652      1
  3652  3649  3650      1
  3653  3649  3653      1
  3654  3649  3654      1
  3655  3650  3655      1
  3656  3655  3656      1
  3657  3655  3658      1
  3658  3655  3659      1
  3659  3656  3657      1
  3660  3656  3660      1
  3661  3656  3661      1
  3662  3657  3662      1
  3663  3662  3663      1
  3664  3662  3665      1
  3665  3662  3666      1
  3666  3663  3664      1
  3667  3663  3667      1
  3668  3663  3668      1
  3669  3664  3669      1
  3670  3669  3670      1
  3671  3669  3672      1
  3672  3669  3673      1
  3673  3670  3671      1
  3674  3670  3674      1
  3675  3670  3675      1
  3676  3671  3676      1
  3677  3676  3677      1
  3678  3676  3679      1
  3679  3676  3680      1
  3680  3677  3678      1
  3681  3677  3681      1
  3682  3677  3682      1
  3683  3678  3683      1
  3684  3683  3684      1
  3685  3683  3686      1
  3686  3683  3687      1
  3687  3684  3685      1
  3688  3684  3688      1
  3689  3684  3689      1
  3690  3685  3690      1
  3691  3690  3691      1
  3692  3690  3693      1
  3693  3690  3694      1
  3694  3691  3692      1
  3695  3691  3695      1
  3696  3691  3696      1
  3697  3692  3697      1
  3698  3697  3698      1
  3699  3697  3700      1
  3700  3697  3701      1
  3701  3698  3699      1
  3702  3698  3702      1
  3703  3698  3703      1
  3704  3699  3704      1
  3705  3704  3705      1
  3706  3704  3707      1
  3707  3704  3708      1
  3708  3705  3706      1
  3709  3705  3709      1
  3710  3705  3710      1
  3711  3706  3711      1
  3712  3711  3712      1
  3713  3711  3714      1
  3714  3711  3715      1
  3715  3712  3713      1
  3716  3712  3716      1
  3717  3712  3717      1
  3718  3713  3718      1
  3719  3718  3719      1
  3720  3718  3721      1
  3721  3718  3722      1
  3722  3719  3720      1
  3723  3719  3723      1
  3724  3719  3724      1
  3725  3720  3725      1
  3726  3725  3726      1
  3727  3725  3728      1
  3728  3725  3729      1
  3729  3726  3727      1
  3730  3726  3730      1
  3731  3726  3731      1
  3732  3727  3732      1
  3733  3732  3733      1
  3734  3732  3735      1
  3735  3732  3736      1
  3736  3733  3734      1
  3737  3733  3737      1
  3738  3733  3738      1
  3739  3734  3739      1
  3740  3739  3740      1
  3741  3739  3742      1
  3742  3739  3743      1
  3743  3740  3741      1
  3744  3740  3744      1
  3745  3740  3745      1
  3746  3741  3746      1
  3747  3746  3747      1
  3748  3746  3749      1
  3749  3746  3750      1
  3750  3747  3748      1
  3751  3747  3751      1
  3752  3747  3752      1
  3753  3748  3753      1
  3754  3753  3754      1
  3755  3753  3756      1
  3756  3753  3757      1
  3757  3754  3755      1
  3758  3754  3758      1
  3759  3754  3759      1
  3760  3755  3760      1
  3761  3760  3761      1
  3762  3760  3763      1
  3763  3760  3764      1
  3764  3761  3762      1
  3765  3761  3765      1
  3766  3761  3766      1
  3767  3762  3767      1
  3768  3767  3768      1
  3769  3767  3770      1
  3770  3767  3771      1
  3771  3768  3769      1
  3772  3768  3772      1
  3773  3768  3773      1
  3774  3769  3774      1
  3775  3774  3775      1
  3776  3774  3777      1
  3777  3774  3778      1
  3778  3775  3776      1
  3779  3775  3779      1
  3780  3775  3780      1
  3781  3776  3781      1
  3782  3781  3782      1
  3783  3781  3784      1
  3784  3781  3785      1
  3785  3782  3783      1
  3786  3782  3786      1
  3787  3782  3787      1
  3788  3783  3788      1
  3789  3788  3789      1
  3790  3788  3791      1
  3791  3788  3792      1
  3792  3789  3790      1
  3793  3789  3793      1
  3794  3789  3794      1
  3795  3790  3795      1
  3796  3795  3796      1
  3797  3795  3798      1
  3798  3795  3799      1
  3799  3796  3797      1
  3800  3796  3800      1
  3801  3796  3801      1
  3802  3797  3802      1
  3803  3802  3803      1
  3804  3802  3805      1
  3805  3802  3806      1
  3806  3803  3804      1
  3807  3803  3807      1
  3808  3803  3808      1
  3809  3804  3809      1
  3810  3809  3810      1
  3811  3809  3812      1
  3812  3809  3813      1
  3813  3810  3811      1
  3814  3810  3814      1
  3815  3810  3815      1
  3816  3811  3816      1
  3817  3816  3817      1
  3818  3816  3819      1
  3819  3816  3820      1
  3820  3817  3818      1
  3821  3817  3821      1
  3822  3817  3822      1
  3823  3818  3823      1
  3824  3823  3824      1
  3825  3823  3826      1
  3826  3823  3827      1
  3827  3824  3825      1
  3828  3824  3828      1
  3829  3824  3829      1
  3830  3825  3830      1
  3831  3830  3831      1
  3832  3830  3833      1
  3833  3830  3834      1
  3834  3831  3832      1
  3835  3831  3835      1
  3836  3831  3836      1
  3837  3832  3837      1
  3838  3837  3838      1
  3839  3837  3840      1
  3840  3837  3841      1
  3841  3838  3839      1
  3842  3838  3842      1
  3843  3838  3843      1
  3844  3839  3844      1
  3845  3844  3845      1
  3846  3844  3847      1
  3847  3844  3848      1
  3848  3845  3846      1
  3849  3845  3849      1
  3850  3845  3850      1
  3851  3846  3851      1
  3852  3851  3852      1
  3853  3851  3854      1
  3854  3851  3855      1
  3855  3852  3853      1
  3856  3852  3856      1
  3857  3852  3857      1
  3858  3853  3858      1
  3859  3858  3859      1
  3860  3858  3861      1
  3861  3858  3862      1
  3862  3859  3860      1
  3863  3859  3863      1
  3864  3859  3864      1
  3865  3860  3865      1
  3866  3865  3866      1
  3867  3865  3868      1
  3868  3865  3869      1
  3869  3866  3867      1
  3870  3866  3870      1
  3871  3866  3871      1
  3872  3867  3872      1
  3873  3872  3873      1
  3874  3872  3875      1
  3875  3872  3876      1
  3876  3873  3874      1
  3877  3873  3877      1
  3878  3873  3878      1
  3879  3874  3879      1
  3880  3879  3880      1
  3881  3879  3882      1
  3882  3879  3883      1
  3883  3880  3881      1
  3884  3880  3884      1
  3885  3880  3885      1
  3886  3881  3886      1
  3887  3886  3887      1
  3888  3886  3889      1
  3889  3886  3890      1
  3890  3887  3888      1
  3891  3887  3891      1
  3892  3887  3892      1
  3893  3888  3893      1
  3894  3893  3894      1
  3895  3893  3896      1
  3896  3893  3897      1
  3897  3894  3895      1
  3898  3894  3898      1
  3899  3894  3899      1
  3900  3895  3900      1
  3901  3900  3901      1
  3902  3900  3903      1
  3903  3900  3904      1
  3904  3901  3902      1
  3905  3901  3905      1
  3906  3901  3906      1
  3907  3902  3907      1
  3908  3907  3908      1
  3909  3907  3910      1
  3910  3907  3911      1
  3911  3908  3909      1
  3912  3908  3912      1
  3913  3908  3913      1
  3914  3909  3914      1
  3915  3914  3915      1
  3916  3914  3917      1
  3917  3914  3918      1
  3918  3915  3916      1
  3919  3915  3919      1
  3920  3915  3920      1
  3921  3916  3921      1
  3922  3921  3922      1
  3923  3921  3924      1
  3924  3921  3925      1
  3925  3922  3923      1
  3926  3922  3926      1
  3927  3922  3927      1
  3928  3923  3928      1
  3929  3928  3929      1
  3930  3928  3931      1
  3931  3928  3932      1
  3932  3929  3930      1
  3933  3929  3933      1
  3934  3929  3934      1
  3935  3930  3935      1
  3936  3935  3936      1
  3937  3935  3938      1
  3938  3935  3939      1
  3939  3936  3937      1
  3940  3936  3940      1
  3941  3936  3941      1
  3942  3937  3942      1
  3943  3942  3943      1
  3944  3942  3945      1
  3945  3942  3946      1
  3946  3943  3944      1
  3947  3943  3947      1
  3948  3943  3948      1
  3949  3944  3949      1
  3950  3949  3950      1
  3951  3949  3952      1
  3952  3949  3953      1
  3953  3950  3951      1
  3954  3950  3954      1
  3955  3950  3955      1
  3956  3951  3956      1
  3957  3956  3957      1
  3958  3956  3959      1
  3959  3956  3960      1
  3960  3957  3958      1
  3961  3957  3961      1
  3962  3957  3962      1
  3963  3958  3963      1
  3964  3963  3964      1
  3965  3963  3966      1
  3966  3963  3967      1
  3967  3964  3965      1
  3968  3964  3968      1
  3969  3964  3969      1
  3970  3965  3970      1
  3971  3970  3971      1
  3972  3970  3973      1
  3973  3970  3974      1
  3974  3971  3972      1
  3975  3971  3975      1
  3976  3971  3976      1
  3977  3972  3977      1
  3978  3977  3978      1
  3979  3977  3980      1
  3980  3977  3981      1
  3981  3978  3979      1
  3982  3978  3982      1
  3983  3978  3983      1
  3984  3979  3984      1
  3985  3984  3985      1
  3986  3984  3987      1
  3987  3984  3988      1
  3988  3985  3986      1
  3989  3985  3989      1
  3990  3985  3990      1
  3991  3986  3991      1
  3992  3991  3992      1
  3993  3991  3994      1
  3994  3991  3995      1
  3995  3992  3993      1
  3996  3992  3996      1
  3997  3992  3997      1
  3998  3993  3998      1
  3999  3998  3999      1
  4000  3998  4001      1
  4001  3998  4002      1
  4002  3999  4000      1
  4003  3999  4003      1
  4004  3999  4004      1
  4005  4000  4005      1
  4006  4005  4006      1
  4007  4005  4008      1
  4008  4005  4009      1
  4009  4006  4007      1
  4010  4006  4010      1
  4011  4006  4011      1
  4012  4007  4012      1
  4013  4012  4013      1
  4014  4012  4015      1
  4015  4012  4016      1
  4016  4013  4014      1
  4017  4013  4017      1
  4018  4013  4018      1
  4019  4014  4019      1
  4020  4019  4020      1
  4021  4019  4022      1
  4022  4019  4023      1
  4023  4020  4021      1
  4024  4020  4024      1
  4025  4020  4025      1
  4026  4021  4026      1
  4027  4026  4027      1
  4028  4026  4029      1
  4029  4026  4030      1
  4030  4027  4028      1
  4031  4027  4031      1
  4032  4027  4032      1
  4033  4028  4033      1
  4034  4033  4034      1
  4035  4033  4036      1
  4036  4033  4037      1
  4037  4034  4035      1
  4038  4034  4038      1
  4039  4034  4039      1
  4040  4035  4040      1
  4041  4040  4041      1
  4042  4040  4043      1
  4043  4040  4044      1
  4044  4041  4042      1
  4045  4041  4045      1
  4046  4041  4046      1
  4047  4042  4047      1
  4048  4047  4048      1
  4049  4047  4050      1
  4050  4047  4051      1
  4051  4048  4049      1
  4052  4048  4052      1
  4053  4048  4053      1
  4054  4049  4054      1
  4055  4054  4055      1
  4056  4054  4057      1
  4057  4054  4058      1
  4058  4055  4056      1
  4059  4055  4059      1
  4060  4055  4060      1
  4061  4056  4061      1
  4062  4061  4062      1
  4063  4061  4064      1
  4064  4061  4065      1
  4065  4062  4063      1
  4066  4062  4066      1
  4067  4062  4067      1
  4068  4063  4068      1
  4069  4068  4069      1
  4070  4068  4071      1
  4071  4068  4072      1
  4072  4069  4070      1
  4073  4069  4073      1
  4074  4069  4074      1
  4075  4070  4075      1
  4076  4075  4076      1
  4077  4075  4078      1
  4078  4075  4079      1
  4079  4076  4077      1
  4080  4076  4080      1
  4081  4076  4081      1
  4082  4077  4082      1
  4083  4082  4083      1
  4084  4082  4085      1
  4085  4082  4086      1
  4086  4083  4084      1
  4087  4083  4087      1
  4088  4083  4088      1
  4089  4084  4089      1
  4090  4089  4090      1
  4091  4089  4092      1
  4092  4089  4093      1
  4093  4090  4091      1
  4094  4090  4094      1
  4095  4090  4095      1
  4096  4091  4096      1
  4097  4096  4097      1
  4098  4096  4099      1
  4099  4096  4100      1
  4100  4097  4098      1
  4101  4097  4101      1
  4102  4097  4102      1
  4103  4098  4103      1
  4104  4103  4104      1
  4105  4103  4106      1
  4106  4103  4107      1
  4107  4104  4105      1
  4108  4104  4108      1
  4109  4104  4109      1
  4110  4105  4110      1
  4111  4110  4111      1
  4112  4110  4113      1
  4113  4110  4114      1
  4114  4111  4112      1
  4115  4111  4115      1
  4116  4111  4116      1
  4117  4112  4117      1
  4118  4117  4118      1
  4119  4117  4120      1
  4120  4117  4121      1
  4121  4118  4119      1
  4122  4118  4122      1
  4123  4118  4123      1
  4124  4119  4124      1
  4125  4124  4125      1
  4126  4124  4127      1
  4127  4124  4128      1
  4128  4125  4126      1
  4129  4125  4129      1
  4130  4125  4130      1
  4131  4126  4131      1
  4132  4131  4132      1
  4133  4131  4134      1
  4134  4131  4135      1
  4135  4132  4133      1
  4136  4132  4136      1
  4137  4132  4137      1
  4138  4133  4138      1
  4139  4138  4139      1
  4140  4138  4141      1
  4141  4138  4142      1
  4142  4139  4140      1
  4143  4139  4143      1
  4144  4139  4144      1
  4145  4140  4145      1
  4146  4145  4146      1
  4147  4145  4148      1
  4148  4145  4149      1
  4149  4146  4147      1
  4150  4146  4150      1
  4151  4146  4151      1
  4152  4147  4152      1
  4153  4152  4153      1
  4154  4152  4155      1
  4155  4152  4156      1
  4156  4153  4154      1
  4157  4153  4157      1
  4158  4153  4158      1
  4159  4154  4159      1
  4160  4159  4160      1
  4161  4159  4162      1
  4162  4159  4163      1
  4163  4160  4161      1
  4164  4160  4164      1
  4165  4160  4165      1
  4166  4161  4166      1
  4167  4166  4167      1
  4168  4166  4169      1
  4169  4166  4170      1
  4170  4167  4168      1
  4171  4167  4171      1
  4172  4167  4172      1
  4173  4168  4173      1
  4174  4173  4174      1
  4175  4173  4176      1
  4176  4173  4177      1
  4177  4174  4175      1
  4178  4174  4178      1
  4179  4174  4179      1
  4180  4175  4180      1
  4181  4180  4181      1
  4182  4180  4183      1
  4183  4180  4184      1
  4184  4181  4182      1
  4185  4181  4185      1
  4186  4181  4186      1
  4187  4182  4187      1
  4188  4187  4188      1
  4189  4187  4190      1
  4190  4187  4191      1
  4191  4188  4189      1
  4192  4188  4192      1
  4193  4188  4193      1
  4194  4189  4194      1
  4195  4194  4195      1
  4196  4194  4197      1
  4197  4194  4198      1
  4198  4195  4196      1
  4199  4195  4199      1
  4200  4195  4200      1
  4201  4196  4201      1
  4202  4201  4202      1
  4203  4201  4204      1
  4204  4201  4205      1
  4205  4202  4203      1
  4206  4202  4206      1
  4207  4202  4207      1
  4208  4203  4208      1
  4209  4208  4209      1
  4210  4208  4211      1
  4211  4208  4212      1
  4212  4209  4210      1
  4213  4209  4213      1
  4214  4209  4214      1
  4215  4210  4215      1
  4216  4215  4216      1
  4217  4215  4218      1
  4218  4215  4219      1
  4219  4216  4217      1
  4220  4216  4220      1
  4221  4216  4221      1
  4222  4217  4222      1
  4223  4222  4223      1
  4224  4222  4225      1
  4225  4222  4226      1
  4226  4223  4224      1
  4227  4223  4227      1
  4228  4223  4228      1
  4229  4224  4229      1
  4230  4229  4230      1
  4231  4229  4232      1
  4232  4229  4233      1
  4233  4230  4231      1
  4234  4230  4234      1
  4235  4230  4235      1
  4236  4231  4236      1
  4237  4236  4237      1
  4238  4236  4239      1
  4239  4236  4240      1
  4240  4237  4238      1
  4241  4237  4241      1
  4242  4237  4242      1
  4243  4238  4243      1
  4244  4243  4244      1
  4245  4243  4246      1
  4246  4243  4247      1
  4247  4244  4245      1
  4248  4244  4248      1
  4249  4244  4249      1
  4250  4245  4250      1
  4251  4250  4251      1
  4252  4250  4253      1
  4253  4250  4254      1
  4254  4251  4252      1
  4255  4251  4255      1
  4256  4251  4256      1
  4257  4252  4257      1
  4258  4257  4258      1
  4259  4257  4260      1
  4260  4257  4261      1
  4261  4258  4259      1
  4262  4258  4262      1
  4263  4258  4263      1
  4264  4259  4264      1
  4265  4264  4265      1
  4266  4264  4267      1
  4267  4264  4268      1
  4268  4265  4266      1
  4269  4265  4269      1
  4270  4265  4270      1
  4271  4266  4271      1
  4272  4271  4272      1
  4273  4271  4274      1
  4274  4271  4275      1
  4275  4272  4273      1
  4276  4272  4276      1
  4277  4272  4277      1
  4278  4273  4278      1
  4279  4278  4279      1
  4280  4278  4281      1
  4281  4278  4282      1
  4282  4279  4280      1
  4283  4279  4283      1
  4284  4279  4284      1
  4285  4280  4285      1
  4286  4285  4286      1
  4287  4285  4288      1
  4288  4285  4289      1
  4289  4286  4287      1
  4290  4286  4290      1
  4291  4286  4291      1
  4292  4287  4292      1
  4293  4292  4293      1
  4294  4292  4295      1
  4295  4292  4296      1
  4296  4293  4294      1
  4297  4293  4297      1
  4298  4293  4298      1
  4299  4294  4299      1
  4300  4299  4300      1
  4301  4299  4302      1
  4302  4299  4303      1
  4303  4300  4301      1
  4304  4300  4304      1
  4305  4300  4305      1
  4306  4301  4306      1
  4307  4306  4307      1
  4308  4306  4309      1
  4309  4306  4310      1
  4310  4307  4308      1
  4311  4307  4311      1
  4312  4307  4312      1
  4313  4308  4313      1
  4314  4313  4314      1
  4315  4313  4316      1
  4316  4313  4317      1
  4317  4314  4315      1
  4318  4314  4318      1
  4319  4314  4319      1
  4320  4315  4320      1
  4321  4320  4321      1
  4322  4320  4323      1
  4323  4320  4324      1
  4324  4321  4322      1
  4325  4321  4325      1
  4326  4321  4326      1
  4327  4322  4327      1
  4328  4327  4328      1
  4329  4327  4330      1
  4330  4327  4331      1
  4331  4328  4329      1
  4332  4328  4332      1
  4333  4328  4333      1
  4334  4329  4334      1
  4335  4334  4335      1
  4336  4334  4337      1
  4337  4334  4338      1
  4338  4335  4336      1
  4339  4335  4339      1
  4340  4335  4340      1
  4341  4336  4341      1
  4342  4341  4342      1
  4343  4341  4344      1
  4344  4341  4345      1
  4345  4342  4343      1
  4346  4342  4346      1
  4347  4342  4347      1
  4348  4343  4348      1
  4349  4348  4349      1
  4350  4348  4351      1
  4351  4348  4352      1
  4352  4349  4350      1
  4353  4349  4353      1
  4354  4349  4354      1
  4355  4350  4355      1
  4356  4355  4356      1
  4357  4355  4358      1
  4358  4355  4359      1
  4359  4356  4357      1
  4360  4356  4360      1
  4361  4356  4361      1
  4362  4357  4362      1
  4363  4362  4363      1
  4364  4362  4365      1
  4365  4362  4366      1
  4366  4363  4364      1
  4367  4363  4367      1
  4368  4363  4368      1
  4369  4364  4369      1
  4370  4369  4370      1
  4371  4369  4372      1
  4372  4369  4373      1
  4373  4370  4371      1
  4374  4370  4374      1
  4375  4370  4375      1
  4376  4371  4376      1
  4377  4376  4377      1
  4378  4376  4379      1
  4379  4376  4380      1
  4380  4377  4378      1
  4381  4377  4381      1
  4382  4377  4382      1
  4383  4378  4383      1
  4384  4383  4384      1
  4385  4383  4386      1
  4386  4383  4387      1
  4387  4384  4385      1
  4388  4384  4388      1
  4389  4384  4389      1
  4390  4385  4390      1
  4391  4390  4391      1
  4392  4390  4393      1
  4393  4390  4394      1
  4394  4391  4392      1
  4395  4391  4395      1
  4396  4391  4396      1
  4397  4392  4397      1
  4398  4397  4398      1
  4399  4397  4400      1
  4400  4397  4401      1
  4401  4398  4399      1
  4402  4398  4402      1
  4403  4398  4403      1
  4404  4399  4404      1
  4405  4404  4405      1
  4406  4404  4407      1
  4407  4404  4408      1
  4408  4405  4406      1
  4409  4405  4409      1
  4410  4405  4410      1
  4411  4406  4411      1
  4412  4411  4412      1
  4413  4411  4414      1
  4414  4411  4415      1
  4415  4412  4413      1
  4416  4412  4416      1
  4417  4412  4417      1
  4418  4413  4418      1
  4419  4418  4419      1
  4420  4418  4421      1
  4421  4418  4422      1
  4422  4419  4420      1
  4423  4419  4423      1
  4424  4419  4424      1
  4425  4420  4425      1
  4426  4425  4426      1
  4427  4425  4428      1
  4428  4425  4429      1
  4429  4426  4427      1
  4430  4426  4430      1
  4431  4426  4431      1
  4432  4427  4432      1
  4433  4432  4433      1
  4434  4432  4435      1
  4435  4432  4436      1
  4436  4433  4434      1
  4437  4433  4437      1
  4438  4433  4438      1
  4439  4434  4439      1
  4440  4439  4440      1
  4441  4439  4442      1
  4442  4439  4443      1
  4443  4440  4441      1
  4444  4440  4444      1
  4445  4440  4445      1
  4446  4441  4446      1
  4447  4446  4447      1
  4448  4446  4449      1
  4449  4446  4450      1
  4450  4447  4448      1
  4451  4447  4451      1
  4452  4447  4452      1
  4453  4448  4453      1
  4454  4453  4454      1
  4455  4453  4456      1
  4456  4453  4457      1
  4457  4454  4455      1
  4458  4454  4458      1
  4459  4454  4459      1
  4460  4455  4460      1
  4461  4460  4461      1
  4462  4460  4463      1
  4463  4460  4464      1
  4464  4461  4462      1
  4465  4461  4465      1
  4466  4461  4466      1
  4467  4462  4467      1
  4468  4467  4468      1
  4469  4467  4470      1
  4470  4467  4471      1
  4471  4468  4469      1
  4472  4468  4472      1
  4473  4468  4473      1
  4474  4469  4474      1
  4475  4474  4475      1
  4476  4474  4477      1
  4477  4474  4478      1
  4478  4475  4476      1
  4479  4475  4479      1
  4480  4475  4480      1
  4481  4476  4481      1
  4482  4481  4482      1
  4483  4481  4484      1
  4484  4481  4485      1
  4485  4482  4483      1
  4486  4482  4486      1
  4487  4482  4487      1
  4488  4483  4488      1
  4489  4488  4489      1
  4490  4488  4491      1
  4491  4488  4492      1
  4492  4489  4490      1
  4493  4489  4493      1
  4494  4489  4494      1
  4495  4490  4495      1
  4496  4495  4496      1
  4497  4495  4498      1
  4498  4495  4499      1
  4499  4496  4497      1
  4500  4496  4500      1
  4501  4496  4501      1
  4502  4497  4502      1
  4503  4502  4503      1
  4504  4502  4505      1
  4505  4502  4506      1
  4506  4503  4504      1
  4507  4503  4507      1
  4508  4503  4508      1
  4509  4504  4509      1
  4510  4509  4510      1
  4511  4509  4512      1
  4512  4509  4513      1
  4513  4510  4511      1
  4514  4510  4514      1
  4515  4510  4515      1
  4516  4511  4516      1
  4517  4516  4517      1
  4518  4516  4519      1
  4519  4516  4520      1
  4520  4517  4518      1
  4521  4517  4521      1
  4522  4517  4522      1
  4523  4518  4523      1
  4524  4523  4524      1
  4525  4523  4526      1
  4526  4523  4527      1
  4527  4524  4525      1
  4528  4524  4528      1
  4529  4524  4529      1
  4530  4525  4530      1
  4531  4530  4531      1
  4532  4530  4533      1
  4533  4530  4534      1
  4534  4531  4532      1
  4535  4531  4535      1
  4536  4531  4536      1
  4537  4532  4537      1
  4538  4537  4538      1
  4539  4537  4540      1
  4540  4537  4541      1
  4541  4538  4539      1
  4542  4538  4542      1
  4543  4538  4543      1
  4544  4539  4544      1
  4545  4544  4545      1
  4546  4544  4547      1
  4547  4544  4548      1
  4548  4545  4546      1
  4549  4545  4549      1
  4550  4545  4550      1
  4551  4546  4551      1
  4552  4551  4552      1
  4553  4551  4554      1
  4554  4551  4555      1
  4555  4552  4553      1
  4556  4552  4556      1
  4557  4552  4557      1
  4558  4553  4558      1
  4559  4558  4559      1
  4560  4558  4561      1
  4561  4558  4562      1
  4562  4559  4560      1
  4563  4559  4563      1
  4564  4559  4564      1
  4565  4560  4565      1
  4566  4565  4566      1
  4567  4565  4568      1
  4568  4565  4569      1
  4569  4566  4567      1
  4570  4566  4570      1
  4571  4566  4571      1
  4572  4567  4572      1
  4573  4572  4573      1
  4574  4572  4575      1
  4575  4572  4576      1
  4576  4573  4574      1
  4577  4573  4577      1
  4578  4573  4578      1
  4579  4574  4579      1
  4580  4579  4580      1
  4581  4579  4582      1
  4582  4579  4583      1
  4583  4580  4581      1
  4584  4580  4584      1
  4585  4580  4585      1
  4586  4581  4586      1
  4587  4586  4587      1
  4588  4586  4589      1
  4589  4586  4590      1
  4590  4587  4588      1
  4591  4587  4591      1
  4592  4587  4592      1
  4593  4588  4593      1
  4594  4593  4594      1
  4595  4593  4596      1
  4596  4593  4597      1
  4597  4594  4595      1
  4598  4594  4598      1
  4599  4594  4599      1
  4600  4595  4600      1
  4601  4600  4601      1
  4602  4600  4603      1
  4603  4600  4604      1
  4604  4601  4602      1
  4605  4601  4605      1
  4606  4601  4606      1
  4607  4602  4607      1
  4608  4607  4608      1
  4609  4607  4610      1
  4610  4607  4611      1
  4611  4608  4609      1
  4612  4608  4612      1
  4613  4608  4613      1
  4614  4609  4614      1
  4615  4614  4615      1
  4616  4614  4617      1
  4617  4614  4618      1
  4618  4615  4616      1
  4619  4615  4619      1
  4620  4615  4620      1
  4621  4616  4621      1
  4622  4621  4622      1
  4623  4621  4624      1
  4624  4621  4625      1
  4625  4622  4623      1
  4626  4622  4626      1
  4627  4622  4627      1
  4628  4623  4628      1
  4629  4628  4629      1
  4630  4628  4631      1
  4631  4628  4632      1
  4632  4629  4630      1
  4633  4629  4633      1
  4634  4629  4634      1
  4635  4630  4635      1
  4636  4635  4636      1
  4637  4635  4638      1
  4638  4635  4639      1
  4639  4636  4637      1
  4640  4636  4640      1
  4641  4636  4641      1
  4642  4637  4642      1
  4643  4642  4643      1
  4644  4642  4645      1
  4645  4642  4646      1
  4646  4643  4644      1
  4647  4643  4647      1
  4648  4643  4648      1
  4649  4644  4649      1
  4650  4649  4650      1
  4651  4649  4652      1
  4652  4649  4653      1
  4653  4650  4651      1
  4654  4650  4654      1
  4655  4650  4655      1
  4656  4651  4656      1
  4657  4656  4657      1
  4658  4656  4659      1
  4659  4656  4660      1
  4660  4657  4658      1
  4661  4657  4661      1
  4662  4657  4662      1
  4663  4658  4663      1
  4664  4663  4664      1
  4665  4663  4666      1
  4666  4663  4667      1
  4667  4664  4665      1
  4668  4664  4668      1
  4669  4664  4669      1
  4670  4665  4670      1
  4671  4670  4671      1
  4672  4670  4673      1
  4673  4670  4674      1
  4674  4671  4672      1
  4675  4671  4675      1
  4676  4671  4676      1
  4677  4672  4677      1
  4678  4677  4678      1
  4679  4677  4680      1
  4680  4677  4681      1
  4681  4678  4679      1
  4682  4678  4682      1
  4683  4678  4683      1
  4684  4679  4684      1
  4685  4684  4685      1
  4686  4684  4687      1
  4687  4684  4688      1
  4688  4685  4686      1
  4689  4685  4689      1
  4690  4685  4690      1
  4691  4686  4691      1
  4692  4691  4692      1
  4693  4691  4694      1
  4694  4691  4695      1
  4695  4692  4693      1
  4696  4692  4696      1
  4697  4692  4697      1
  4698  4693  4698      1
  4699  4698  4699      1
  4700  4698  4701      1
  4701  4698  4702      1
  4702  4699  4700      1
  4703  4699  4703      1
  4704  4699  4704      1
  4705  4700  4705      1
  4706  4705  4706      1
  4707  4705  4708      1
  4708  4705  4709      1
  4709  4706  4707      1
  4710  4706  4710      1
  4711  4706  4711      1
  4712  4707  4712      1
  4713  4712  4713      1
  4714  4712  4715      1
  4715  4712  4716      1
  4716  4713  4714      1
  4717  4713  4717      1
  4718  4713  4718      1
  4719  4714  4719      1
  4720  4719  4720      1
  4721  4719  4722      1
  4722  4719  4723      1
  4723  4720  4721      1
  4724  4720  4724      1
  4725  4720  4725      1
  4726  4721  4726      1
  4727  4726  4727      1
  4728  4726  4729      1
  4729  4726  4730      1
  4730  4727  4728      1
  4731  4727  4731      1
  4732  4727  4732      1
  4733  4728  4733      1
  4734  4733  4734      1
  4735  4733  4736      1
  4736  4733  4737      1
  4737  4734  4735      1
  4738  4734  4738      1
  4739  4734  4739      1
  4740  4735  4740      1
  4741  4740  4741      1
  4742  4740  4743      1
  4743  4740  4744      1
  4744  4741  4742      1
  4745  4741  4745      1
  4746  4741  4746      1
  4747  4742  4747      1
  4748  4747  4748      1
  4749  4747  4750      1
  4750  4747  4751      1
  4751  4748  4749      1
  4752  4748  4752      1
  4753  4748  4753      1
  4754  4749  4754      1
  4755  4754  4755      1
  4756  4754  4757      1
  4757  4754  4758      1
  4758  4755  4756      1
  4759  4755  4759      1
  4760  4755  4760      1
  4761  4756  4761      1
  4762  4761  4762      1
  4763  4761  4764      1
  4764  4761  4765      1
  4765  4762  4763      1
  4766  4762  4766      1
  4767  4762  4767      1
  4768  4763  4768      1
  4769  4768  4769      1
  4770  4768  4771      1
  4771  4768  4772      1
  4772  4769  4770      1
  4773  4769  4773      1
  4774  4769  4774      1
  4775  4770  4775      1
  4776  4775  4776      1
  4777  4775  4778      1
  4778  4775  4779      1
  4779  4776  4777      1
  4780  4776  4780      1
  4781  4776  4781      1
  4782  4777  4782      1
  4783  4782  4783      1
  4784  4782  4785      1
  4785  4782  4786      1
  4786  4783  4784      1
  4787  4783  4787      1
  4788  4783  4788      1
  4789  4784  4789      1
  4790  4789  4790      1
  4791  4789  4792      1
  4792  4789  4793      1
  4793  4790  4791      1
  4794  4790  4794      1
  4795  4790  4795      1
  4796  4791  4796      1
  4797  4796  4797      1
  4798  4796  4799      1
  4799  4796  4800      1
  4800  4797  4798      1
  4801  4797  4801      1
  4802  4797  4802      1
  4803  4798  4803      1
  4804  4803  4804      1
  4805  4803  4806      1
  4806  4803  4807      1
  4807  4804  4805      1
  4808  4804  4808      1
  4809  4804  4809      1
  4810  4805  4810      1
  4811  4810  4811      1
  4812  4810  4813      1
  4813  4810  4814      1
  4814  4811  4812      1
  4815  4811  4815      1
  4816  4811  4816      1
  4817  4812  4817      1
  4818  4817  4818      1
  4819  4817  4820      1
  4820  4817  4821      1
  4821  4818  4819      1
  4822  4818  4822      1
  4823  4818  4823      1
  4824  4819  4824      1
  4825  4824  4825      1
  4826  4824  4827      1
  4827  4824  4828      1
  4828  4825  4826      1
  4829  4825  4829      1
  4830  4825  4830      1
  4831  4826  4831      1
  4832  4831  4832      1
  4833  4831  4834      1
  4834  4831  4835      1
  4835  4832  4833      1
  4836  4832  4836      1
  4837  4832  4837      1
  4838  4833  4838      1
  4839  4838  4839      1
  4840  4838  4841      1
  4841  4838  4842      1
  4842  4839  4840      1
  4843  4839  4843      1
  4844  4839  4844      1
  4845  4840  4845      1
  4846  4845  4846      1
  4847  4845  4848      1
  4848  4845  4849      1
  4849  4846  4847      1
  4850  4846  4850      1
  4851  4846  4851      1
  4852  4847  4852      1
  4853  4852  4853      1
  4854  4852  4855      1
  4855  4852  4856      1
  4856  4853  4854      1
  4857  4853  4857      1
  4858  4853  4858      1
  4859  4854  4859      1
  4860  4859  4860      1
  4861  4859  4862      1
  4862  4859  4863      1
  4863  4860  4861      1
  4864  4860  4864      1
  4865  4860  4865      1
  4866  4861  4866      1
  4867  4866  4867      1
  4868  4866  4869      1
  4869  4866  4870      1
  4870  4867  4868      1
  4871  4867  4871      1
  4872  4867  4872      1
  4873  4868  4873      1
  4874  4873  4874      1
  4875  4873  4876      1
  4876  4873  4877      1
  4877  4874  4875      1
  4878  4874  4878      1
  4879  4874  4879      1
  4880  4875  4880      1
  4881  4880  4881      1
  4882  4880  4883      1
  4883  4880  4884      1
  4884  4881  4882      1
  4885  4881  4885      1
  4886  4881  4886      1
  4887  4882  4887      1
  4888  4887  4888      1
  4889  4887  4890      1
  4890  4887  4891      1
  4891  4888  4889      1
  4892  4888  4892      1
  4893  4888  4893      1
  4894  4889  4894      1
  4895  4894  4895      1
  4896  4894  4897      1
  4897  4894  4898      1
  4898  4895  4896      1
  4899  4895  4899      1
  4900  4895  4900      1
  4901  4896  4901      1
  4902  4901  4902      1
  4903  4901  4904      1
  4904  4901  4905      1
  4905  4902  4903      1
  4906  4902  4906      1
  4907  4902  4907      1
  4908  4903  4908      1
  4909  4908  4909      1
  4910  4908  4911      1
  4911  4908  4912      1
  4912  4909  4910      1
  4913  4909  4913      1
  4914  4909  4914      1
  4915  4910  4915      1
  4916  4915  4916      1
  4917  4915  4918      1
  4918  4915  4919      1
  4919  4916  4917      1
  4920  4916  4920      1
  4921  4916  4921      1
  4922  4917  4922      1
  4923  4922  4923      1
  4924  4922  4925      1
  4925  4922  4926      1
  4926  4923  4924      1
  4927  4923  4927      1
  4928  4923  4928      1
  4929  4924  4929      1
  4930  4929  4930      1
  4931  4929  4932      1
  4932  4929  4933      1
  4933  4930  4931      1
  4934  4930  4934      1
  4935  4930  4935      1
  4936  4931  4936      1
  4937  4936  4937      1
  4938  4936  4939      1
  4939  4936  4940      1
  4940  4937  4938      1
  4941  4937  4941      1
  4942  4937  4942      1
  4943  4938  4943      1
  4944  4943  4944      1
  4945  4943  4946      1
  4946  4943  4947      1
  4947  4944  4945      1
  4948  4944  4948      1
  4949  4944  4949      1
  4950  4945  4950      1
  4951  4950  4951      1
  4952  4950  4953      1
  4953  4950  4954      1
  4954  4951  4952      1
  4955  4951  4955      1
  4956  4951  4956      1
  4957  4952  4957      1
  4958  4957  4958      1
  4959  4957  4960      1
  4960  4957  4961      1
  4961  4958  4959      1
  4962  4958  4962      1
  4963  4958  4963      1
  4964  4959  4964      1
  4965  4964  4965      1
  4966  4964  4967      1
  4967  4964  4968      1
  4968  4965  4966      1
  4969  4965  4969      1
  4970  4965  4970      1
  4971  4966  4971      1
  4972  4971  4972      1
  4973  4971  4974      1
  4974  4971  4975      1
  4975  4972  4973      1
  4976  4972  4976      1
  4977  4972  4977      1
  4978  4973  4978      1
  4979  4978  4979      1
  4980  4978  4981      1
  4981  4978  4982      1
  4982  4979  4980      1
  4983  4979  4983      1
  4984  4979  4984      1
  4985  4980  4985      1
  4986  4985  4986      1
  4987  4985  4988      1
  4988  4985  4989      1
  4989  4986  4987      1
  4990  4986  4990      1
  4991  4986  4991      1
  4992  4987  4992      1
  4993  4992  4993      1
  4994  4992  4995      1
  4995  4992  4996      1
  4996  4993  4994      1
  4997  4993  4997      1
  4998  4993  4998      1
  4999  4994  4999      1
  5000  4999  5000      1
  5001  4999  5002      1
  5002  4999  5003      1
  5003  5000  5001      1
  5004  5000  5004      1
  5005  5000  5005      1
  5006  5001  5006      1
  5007  5006  5007      1
  5008  5006  5009      1
  5009  5006  5010      1
  5010  5007  5008      1
  5011  5007  5011      1
  5012  5007  5012      1
  5013  5008  5013      1
  5014  5013  5014      1
  5015  5013  5016      1
  5016  5013  5017      1
  5017  5014  5015      1
  5018  5014  5018      1
  5019  5014  5019      1
  5020  5015  5020      1
  5021  5020  5021      1
  5022  5020  5023      1
  5023  5020  5024      1
  5024  5021  5022      1
  5025  5021  5025      1
  5026  5021  5026      1
  5027  5022  5027      1
  5028  5027  5028      1
  5029  5027  5030      1
  5030  5027  5031      1
  5031  5028  5029      1
  5032  5028  5032      1
  5033  5028  5033      1
  5034  5029  5034      1
  5035  5034  5035      1
  5036  5034  5037      1
  5037  5034  5038      1
  5038  5035  5036      1
  5039  5035  5039      1
  5040  5035  5040      1
  5041  5036  5041      1
  5042  5041  5042      1
  5043  5041  5044      1
  5044  5041  5045      1
  5045  5042  5043      1
  5046  5042  5046      1
  5047  5042  5047      1
  5048  5043  5048      1
  5049  5048  5049      1
  5050  5048  5051      1
  5051  5048  5052      1
  5052  5049  5050      1
  5053  5049  5053      1
  5054  5049  5054      1
  5055  5050  5055      1
  5056  5055  5056      1
  5057  5055  5058      1
  5058  5055  5059      1
  5059  5056  5057      1
  5060  5056  5060      1
  5061  5056  5061      1
  5062  5057  5062      1
  5063  5062  5063      1
  5064  5062  5065      1
  5065  5062  5066      1
  5066  5063  5064      1
  5067  5063  5067      1
  5068  5063  5068      1
  5069  5064  5069      1
  5070  5069  5070      1
  5071  5069  5072      1
  5072  5069  5073      1
  5073  5070  5071      1
  5074  5070  5074      1
  5075  5070  5075      1
  5076  5071  5076      1
  5077  5076  5077      1
  5078  5076  5079      1
  5079  5076  5080      1
  5080  5077  5078      1
  5081  5077  5081      1
  5082  5077  5082      1
  5083  5078  5083      1
  5084  5083  5084      1
  5085  5083  5086      1
  5086  5083  5087      1
  5087  5084  5085      1
  5088  5084  5088      1
  5089  5084  5089      1
  5090  5085  5090      1
  5091  5090  5091      1
  5092  5090  5093      1
  5093  5090  5094      1
  5094  5091  5092      1
  5095  5091  5095      1
  5096  5091  5096      1
  5097  5092  5097      1
  5098  5097  5098      1
  5099  5097  5100      1
  5100  5097  5101      1
  5101  5098  5099      1
  5102  5098  5102      1
  5103  5098  5103      1
  5104  5099  5104      1
  5105  5104  5105      1
  5106  5104  5107      1
  5107  5104  5108      1
  5108  5105  5106      1
  5109  5105  5109      1
  5110  5105  5110      1
  5111  5106  5111      1
  5112  5111  5112      1
  5113  5111  5114      1
  5114  5111  5115      1
  5115  5112  5113      1
  5116  5112  5116      1
  5117  5112  5117      1
  5118  5113  5118      1
  5119  5118  5119      1
  5120  5118  5121      1
  5121  5118  5122      1
  5122  5119  5120      1
  5123  5119  5123      1
  5124  5119  5124      1
  5125  5120  5125      1
  5126  5125  5126      1
  5127  5125  5128      1
  5128  5125  5129      1
  5129  5126  5127      1
  5130  5126  5130      1
  5131  5126  5131      1
  5132  5127  5132      1
  5133  5132  5133      1
  5134  5132  5135      1
  5135  5132  5136      1
  5136  5133  5134      1
  5137  5133  5137      1
  5138  5133  5138      1
  5139  5134  5139      1
  5140  5139  5140      1
  5141  5139  5142      1
  5142  5139  5143      1
  5143  5140  5141      1
  5144  5140  5144      1
  5145  5140  5145      1
  5146  5141  5146      1
  5147  5146  5147      1
  5148  5146  5149      1
  5149  5146  5150      1
  5150  5147  5148      1
  5151  5147  5151      1
  5152  5147  5152      1
  5153  5148  5153      1
  5154  5153  5154      1
  5155  5153  5156      1
  5156  5153  5157      1
  5157  5154  5155      1
  5158  5154  5158      1
  5159  5154  5159      1
  5160  5155  5160      1
  5161  5160  5161      1
  5162  5160  5163      1
  5163  5160  5164      1
  5164  5161  5162      1
  5165  5161  5165      1
  5166  5161  5166      1
  5167  5162  5167      1
  5168  5167  5168      1
  5169  5167  5170      1
  5170  5167  5171      1
  5171  5168  5169      1
  5172  5168  5172      1
  5173  5168  5173      1
  5174  5169  5174      1
  5175  5174  5175      1
  5176  5174  5177      1
  5177  5174  5178      1
  5178  5175  5176      1
  5179  5175  5179      1
  5180  5175  5180      1
  5181  5176  5181      1
  5182  5181  5182      1
  5183  5181  5184      1
  5184  5181  5185      1
  5185  5182  5183      1
  5186  5182  5186      1
  5187  5182  5187      1
  5188  5183  5188      1
  5189  5188  5189      1
  5190  5188  5191      1
  5191  5188  5192      1
  5192  5189  5190      1
  5193  5189  5193      1
  5194  5189  5194      1
  5195  5190  5195      1
  5196  5195  5196      1
  5197  5195  5198      1
  5198  5195  5199      1
  5199  5196  5197      1
  5200  5196  5200      1
  5201  5196  5201      1
  5202  5197  5202      1
  5203  5202  5203      1
  5204  5202  5205      1
  5205  5202  5206      1
  5206  5203  5204      1
  5207  5203  5207      1
  5208  5203  5208      1
  5209  5204  5209      1
  5210  5209  5210      1
  5211  5209  5212      1
  5212  5209  5213      1
  5213  5210  5211      1
  5214  5210  5214      1
  5215  5210  5215      1
  5216  5211  5216      1
  5217  5216  5217      1
  5218  5216  5219      1
  5219  5216  5220      1
  5220  5217  5218      1
  5221  5217  5221      1
  5222  5217  5222      1
  5223  5218  5223      1
  5224  5223  5224      1
  5225  5223  5226      1
  5226  5223  5227      1
  5227  5224  5225      1
  5228  5224  5228      1
  5229  5224  5229      1
  5230  5225  5230      1
  5231  5230  5231      1
  5232  5230  5233      1
  5233  5230  5234      1
  5234  5231  5232      1
  5235  5231  5235      1
  5236  5231  5236      1
  5237  5232  5237      1
  5238  5237  5238      1
  5239  5237  5240      1
  5240  5237  5241      1
  5241  5238  5239      1
  5242  5238  5242      1
  5243  5238  5243      1
  5244  5239  5244      1
  5245  5244  5245      1
  5246  5244  5247      1
  5247  5244  5248      1
  5248  5245  5246      1
  5249  5245  5249      1
  5250  5245  5250      1
  5251  5246  5251      1
  5252  5251  5252      1
  5253  5251  5254      1
  5254  5251  5255      1
  5255  5252  5253      1
  5256  5252  5256      1
  5257  5252  5257      1
  5258  5253  5258      1
  5259  5258  5259      1
  5260  5258  5261      1
  5261  5258  5262      1
  5262  5259  5260      1
  5263  5259  5263      1
  5264  5259  5264      1
  5265  5260  5265      1
  5266  5265  5266      1
  5267  5265  5268      1
  5268  5265  5269      1
  5269  5266  5267      1
  5270  5266  5270      1
  5271  5266  5271      1
  5272  5267  5272      1
  5273  5272  5273      1
  5274  5272  5275      1
  5275  5272  5276      1
  5276  5273  5274      1
  5277  5273  5277      1
  5278  5273  5278      1
  5279  5274  5279      1
  5280  5279  5280      1
  5281  5279  5282      1
  5282  5279  5283      1
  5283  5280  5281      1
  5284  5280  5284      1
  5285  5280  5285      1
  5286  5281  5286      1
  5287  5286  5287      1
  5288  5286  5289      1
  5289  5286  5290      1
  5290  5287  5288      1
  5291  5287  5291      1
  5292  5287  5292      1
  5293  5288  5293      1
  5294  5293  5294      1
  5295  5293  5296      1
  5296  5293  5297      1
  5297  5294  5295      1
  5298  5294  5298      1
  5299  5294  5299      1
  5300  5295  5300      1
  5301  5300  5301      1
  5302  5300  5303      1
  5303  5300  5304      1
  5304  5301  5302      1
  5305  5301  5305      1
  5306  5301  5306      1
  5307  5302  5307      1
  5308  5307  5308      1
  5309  5307  5310      1
  5310  5307  5311      1
  5311  5308  5309      1
  5312  5308  5312      1
  5313  5308  5313      1
  5314  5309  5314      1
  5315  5314  5315      1
  5316  5314  5317      1
  5317  5314  5318      1
  5318  5315  5316      1
  5319  5315  5319      1
  5320  5315  5320      1
  5321  5316  5321      1
  5322  5321  5322      1
  5323  5321  5324      1
  5324  5321  5325      1
  5325  5322  5323      1
  5326  5322  5326      1
  5327  5322  5327      1
  5328  5323  5328      1
  5329  5328  5329      1
  5330  5328  5331      1
  5331  5328  5332      1
  5332  5329  5330      1
  5333  5329  5333      1
  5334  5329  5334      1
  5335  5330  5335      1
  5336  5335  5336      1
  5337  5335  5338      1
  5338  5335  5339      1
  5339  5336  5337      1
  5340  5336  5340      1
  5341  5336  5341      1
  5342  5337  5342      1
  5343  5342  5343      1
  5344  5342  5345      1
  5345  5342  5346      1
  5346  5343  5344      1
  5347  5343  5347      1
  5348  5343  5348      1
  5349  5344  5349      1
  5350  5349  5350      1
  5351  5349  5352      1
  5352  5349  5353      1
  5353  5350  5351      1
  5354  5350  5354      1
  5355  5350  5355      1
  5356  5351  5356      1
  5357  5356  5357      1
  5358  5356  5359      1
  5359  5356  5360      1
  5360  5357  5358      1
  5361  5357  5361      1
  5362  5357  5362      1
  5363  5358  5363      1
  5364  5363  5364      1
  5365  5363  5366      1
  5366  5363  5367      1
  5367  5364  5365      1
  5368  5364  5368      1
  5369  5364  5369      1
  5370  5365  5370      1
  5371  5370  5371      1
  5372  5370  5373      1
  5373  5370  5374      1
  5374  5371  5372      1
  5375  5371  5375      1
  5376  5371  5376      1
  5377  5372  5377      1
  5378  5377  5378      1
  5379  5377  5380      1
  5380  5377  5381      1
  5381  5378  5379      1
  5382  5378  5382      1
  5383  5378  5383      1
  5384  5379  5384      1
  5385  5384  5385      1
  5386  5384  5387      1
  5387  5384  5388      1
  5388  5385  5386      1
  5389  5385  5389      1
  5390  5385  5390      1
  5391  5386  5391      1
  5392  5391  5392      1
  5393  5391  5394      1
  5394  5391  5395      1
  5395  5392  5393      1
  5396  5392  5396      1
  5397  5392  5397      1
  5398  5393  5398      1
  5399  5398  5399      1
  5400  5398  5401      1
  5401  5398  5402      1
  5402  5399  5400      1
  5403  5399  5403      1
  5404  5399  5404      1
  5405  5400  5405      1
  5406  5405  5406      1
  5407  5405  5408      1
  5408  5405  5409      1
  5409  5406  5407      1
  5410  5406  5410      1
  5411  5406  5411      1
  5412  5407  5412      1
  5413  5412  5413      1
  5414  5412  5415      1
  5415  5412  5416      1
  5416  5413  5414      1
  5417  5413  5417      1
  5418  5413  5418      1
  5419  5414  5419      1
  5420  5419  5420      1
  5421  5419  5422      1
  5422  5419  5423      1
  5423  5420  5421      1
  5424  5420  5424      1
  5425  5420  5425      1
  5426  5421  5426      1
  5427  5426  5427      1
  5428  5426  5429      1
  5429  5426  5430      1
  5430  5427  5428      1
  5431  5427  5431      1
  5432  5427  5432      1
  5433  5428  5433      1
  5434  5433  5434      1
  5435  5433  5436      1
  5436  5433  5437      1
  5437  5434  5435      1
  5438  5434  5438      1
  5439  5434  5439      1
  5440  5435  5440      1
  5441  5440  5441      1
  5442  5440  5443      1
  5443  5440  5444      1
  5444  5441  5442      1
  5445  5441  5445      1
  5446  5441  5446      1
  5447  5442  5447      1
  5448  5447  5448      1
  5449  5447  5450      1
  5450  5447  5451      1
  5451  5448  5449      1
  5452  5448  5452      1
  5453  5448  5453      1
  5454  5449  5454      1
  5455  5454  5455      1
  5456  5454  5457      1
  5457  5454  5458      1
  5458  5455  5456      1
  5459  5455  5459      1
  5460  5455  5460      1
  5461  5456  5461      1
  5462  5461  5462      1
  5463  5461  5464      1
  5464  5461  5465      1
  5465  5462  5463      1
  5466  5462  5466      1
  5467  5462  5467      1
  5468  5463  5468      1
  5469  5468  5469      1
  5470  5468  5471      1
  5471  5468  5472      1
  5472  5469  5470      1
  5473  5469  5473      1
  5474  5469  5474      1
  5475  5470  5475      1
  5476  5475  5476      1
  5477  5475  5478      1
  5478  5475  5479      1
  5479  5476  5477      1
  5480  5476  5480      1
  5481  5476  5481      1
  5482  5477  5482      1
  5483  5482  5483      1
  5484  5482  5485      1
  5485  5482  5486      1
  5486  5483  5484      1
  5487  5483  5487      1
  5488  5483  5488      1
  5489  5484  5489      1
  5490  5489  5490      1
  5491  5489  5492      1
  5492  5489  5493      1
  5493  5490  5491      1
  5494  5490  5494      1
  5495  5490  5495      1
  5496  5491  5496      1
  5497  5496  5497      1
  5498  5496  5499      1
  5499  5496  5500      1
  5500  5497  5498      1
  5501  5497  5501      1
  5502  5497  5502      1
  5503  5498  5503      1
  5504  5503  5504      1
  5505  5503  5506      1
  5506  5503  5507      1
  5507  5504  5505      1
  5508  5504  5508      1
  5509  5504  5509      1
  5510  5505  5510      1
  5511  5510  5511      1
  5512  5510  5513      1
  5513  5510  5514      1
  5514  5511  5512      1
  5515  5511  5515      1
  5516  5511  5516      1
  5517  5512  5517      1
  5518  5517  5518      1
  5519  5517  5520      1
  5520  5517  5521      1
  5521  5518  5519      1
  5522  5518  5522      1
  5523  5518  5523      1
  5524  5519  5524      1
  5525  5524  5525      1
  5526  5524  5527      1
  5527  5524  5528      1
  5528  5525  5526      1
  5529  5525  5529      1
  5530  5525  5530      1
  5531  5526  5531      1
  5532  5531  5532      1
  5533  5531  5534      1
  5534  5531  5535      1
  5535  5532  5533      1
  5536  5532  5536      1
  5537  5532  5537      1
  5538  5533  5538      1
  5539  5538  5539      1
  5540  5538  5541      1
  5541  5538  5542      1
  5542  5539  5540      1
  5543  5539  5543      1
  5544  5539  5544      1
  5545  5540  5545      1
  5546  5545  5546      1
  5547  5545  5548      1
  5548  5545  5549      1
  5549  5546  5547      1
  5550  5546  5550      1
  5551  5546  5551      1
  5552  5547  5552      1
  5553  5552  5553      1
  5554  5552  5555      1
  5555  5552  5556      1
  5556  5553  5554      1
  5557  5553  5557      1
  5558  5553  5558      1
  5559  5554  5559      1
  5560  5559  5560      1
  5561  5559  5562      1
  5562  5559  5563      1
  5563  5560  5561      1
  5564  5560  5564      1
  5565  5560  5565      1
  5566  5561  5566      1
  5567  5566  5567      1
  5568  5566  5569      1
  5569  5566  5570      1
  5570  5567  5568      1
  5571  5567  5571      1
  5572  5567  5572      1
  5573  5568  5573      1
  5574  5573  5574      1
  5575  5573  5576      1
  5576  5573  5577      1
  5577  5574  5575      1
  5578  5574  5578      1
  5579  5574  5579      1
  5580  5575  5580      1
  5581  5580  5581      1
  5582  5580  5583      1
  5583  5580  5584      1
  5584  5581  5582      1
  5585  5581  5585      1
  5586  5581  5586      1
  5587  5582  5587      1
  5588  5587  5588      1
  5589  5587  5590      1
  5590  5587  5591      1
  5591  5588  5589      1
  5592  5588  5592      1
  5593  5588  5593      1
  5594  5589  5594      1
  5595  5594  5595      1
  5596  5594  5597      1
  5597  5594  5598      1
  5598  5595  5596      1
  5599  5595  5599      1
  5600  5595  5600      1
  5601  5596  5601      1
  5602  5601  5602      1
  5603  5601  5604      1
  5604  5601  5605      1
  5605  5602  5603      1
  5606  5602  5606      1
  5607  5602  5607      1
  5608  5603  5608      1
  5609  5608  5609      1
  5610  5608  5611      1
  5611  5608  5612      1
  5612  5609  5610      1
  5613  5609  5613      1
  5614  5609  5614      1
  5615  5610  5615      1
  5616  5615  5616      1
  5617  5615  5618      1
  5618  5615  5619      1
  5619  5616  5617      1
  5620  5616  5620      1
  5621  5616  5621      1
  5622  5617  5622      1
  5623  5622  5623      1
  5624  5622  5625      1
  5625  5622  5626      1
  5626  5623  5624      1
  5627  5623  5627      1
  5628  5623  5628      1
  5629  5624  5629      1
  5630  5629  5630      1
  5631  5629  5632      1
  5632  5629  5633      1
  5633  5630  5631      1
  5634  5630  5634      1
  5635  5630  5635      1
  5636  5631  5636      1
  5637  5636  5637      1
  5638  5636  5639      1
  5639  5636  5640      1
  5640  5637  5638      1
  5641  5637  5641      1
  5642  5637  5642      1
  5643  5638  5643      1
  5644  5643  5644      1
  5645  5643  5646      1
  5646  5643  5647      1
  5647  5644  5645      1
  5648  5644  5648      1
  5649  5644  5649      1
  5650  5645  5650      1
  5651  5650  5651      1
  5652  5650  5653      1
  5653  5650  5654      1
  5654  5651  5652      1
  5655  5651  5655      1
  5656  5651  5656      1
  5657  5652  5657      1
  5658  5657  5658      1
  5659  5657  5660      1
  5660  5657  5661      1
  5661  5658  5659      1
  5662  5658  5662      1
  5663  5658  5663      1
  5664  5659  5664      1
  5665  5664  5665      1
  5666  5664  5667      1
  5667  5664  5668      1
  5668  5665  5666      1
  5669  5665  5669      1
  5670  5665  5670      1
  5671  5666  5671      1
  5672  5671  5672      1
  5673  5671  5674      1
  5674  5671  5675      1
  5675  5672  5673      1
  5676  5672  5676      1
  5677  5672  5677      1
  5678  5673  5678      1
  5679  5678  5679      1
  5680  5678  5681      1
  5681  5678  5682      1
  5682  5679  5680      1
  5683  5679  5683      1
  5684  5679  5684      1
  5685  5680  5685      1
  5686  5685  5686      1
  5687  5685  5688      1
  5688  5685  5689      1
  5689  5686  5687      1
  5690  5686  5690      1
  5691  5686  5691      1
  5692  5687  5692      1
  5693  5692  5693      1
  5694  5692  5695      1
  5695  5692  5696      1
  5696  5693  5694      1
  5697  5693  5697      1
  5698  5693  5698      1
  5699  5694  5699      1
  5700  5699  5700      1
  5701  5699  5702      1
  5702  5699  5703      1
  5703  5700  5701      1
  5704  5700  5704      1
  5705  5700  5705      1
  5706  5701  5706      1
  5707  5706  5707      1
  5708  5706  5709      1
  5709  5706  5710      1
  5710  5707  5708      1
  5711  5707  5711      1
  5712  5707  5712      1
  5713  5708  5713      1
  5714  5713  5714      1
  5715  5713  5716      1
  5716  5713  5717      1
  5717  5714  5715      1
  5718  5714  5718      1
  5719  5714  5719      1
  5720  5715  5720      1
  5721  5720  5721      1
  5722  5720  5723      1
  5723  5720  5724      1
  5724  5721  5722      1
  5725  5721  5725      1
  5726  5721  5726      1
  5727  5722  5727      1
  5728  5727  5728      1
  5729  5727  5730      1
  5730  5727  5731      1
  5731  5728  5729      1
  5732  5728  5732      1
  5733  5728  5733      1
  5734  5729  5734      1
  5735  5734  5735      1
  5736  5734  5737      1
  5737  5734  5738      1
  5738  5735  5736      1
  5739  5735  5739      1
  5740  5735  5740      1
  5741  5736  5741      1
  5742  5741  5742      1
  5743  5741  5744      1
  5744  5741  5745      1
  5745  5742  5743      1
  5746  5742  5746      1
  5747  5742  5747      1
  5748  5743  5748      1
  5749  5748  5749      1
  5750  5748  5751      1
  5751  5748  5752      1
  5752  5749  5750      1
  5753  5749  5753      1
  5754  5749  5754      1
  5755  5750  5755      1
  5756  5755  5756      1
  5757  5755  5758      1
  5758  5755  5759      1
  5759  5756  5757      1
  5760  5756  5760      1
  5761  5756  5761      1
  5762  5757  5762      1
  5763  5762  5763      1
  5764  5762  5765      1
  5765  5762  5766      1
  5766  5763  5764      1
  5767  5763  5767      1
  5768  5763  5768      1
  5769  5764  5769      1
  5770  5769  5770      1
  5771  5769  5772      1
  5772  5769  5773      1
  5773  5770  5771      1
  5774  5770  5774      1
  5775  5770  5775      1
  5776  5771  5776      1
  5777  5776  5777      1
  5778  5776  5779      1
  5779  5776  5780      1
  5780  5777  5778      1
  5781  5777  5781      1
  5782  5777  5782      1
  5783  5778  5783      1
  5784  5783  5784      1
  5785  5783  5786      1
  5786  5783  5787      1
  5787  5784  5785      1
  5788  5784  5788      1
  5789  5784  5789      1
  5790  5785  5790      1
  5791  5790  5791      1
  5792  5790  5793      1
  5793  5790  5794      1
  5794  5791  5792      1
  5795  5791  5795      1
  5796  5791  5796      1
  5797  5792  5797      1
  5798  5797  5798      1
  5799  5797  5800      1
  5800  5797  5801      1
  5801  5798  5799      1
  5802  5798  5802      1
  5803  5798  5803      1
  5804  5799  5804      1
  5805  5804  5805      1
  5806  5804  5807      1
  5807  5804  5808      1
  5808  5805  5806      1
  5809  5805  5809      1
  5810  5805  5810      1
  5811  5806  5811      1
  5812  5811  5812      1
  5813  5811  5814      1
  5814  5811  5815      1
  5815  5812  5813      1
  5816  5812  5816      1
  5817  5812  5817      1
  5818  5813  5818      1
  5819  5818  5819      1
  5820  5818  5821      1
  5821  5818  5822      1
  5822  5819  5820      1
  5823  5819  5823      1
  5824  5819  5824      1
  5825  5820  5825      1
  5826  5825  5826      1
  5827  5825  5828      1
  5828  5825  5829      1
  5829  5826  5827      1
  5830  5826  5830      1
  5831  5826  5831      1
  5832  5827  5832      1
  5833  5832  5833      1
  5834  5832  5835      1
  5835  5832  5836      1
  5836  5833  5834      1
  5837  5833  5837      1
  5838  5833  5838      1
  5839  5834  5839      1
  5840  5839  5840      1
  5841  5839  5842      1
  5842  5839  5843      1
  5843  5840  5841      1
  5844  5840  5844      1
  5845  5840  5845      1
  5846  5841  5846      1
  5847  5846  5847      1
  5848  5846  5849      1
  5849  5846  5850      1
  5850  5847  5848      1
  5851  5847  5851      1
  5852  5847  5852      1
  5853  5848  5853      1
  5854  5853  5854      1
  5855  5853  5856      1
  5856  5853  5857      1
  5857  5854  5855      1
  5858  5854  5858      1
  5859  5854  5859      1
  5860  5855  5860      1
  5861  5860  5861      1
  5862  5860  5863      1
  5863  5860  5864      1
  5864  5861  5862      1
  5865  5861  5865      1
  5866  5861  5866      1
  5867  5862  5867      1
  5868  5867  5868      1
  5869  5867  5870      1
  5870  5867  5871      1
  5871  5868  5869      1
  5872  5868  5872      1
  5873  5868  5873      1
  5874  5869  5874      1
  5875  5874  5875      1
  5876  5874  5877      1
  5877  5874  5878      1
  5878  5875  5876      1
  5879  5875  5879      1
  5880  5875  5880      1
  5881  5876  5881      1
  5882  5881  5882      1
  5883  5881  5884      1
  5884  5881  5885      1
  5885  5882  5883      1
  5886  5882  5886      1
  5887  5882  5887      1
  5888  5883  5888      1
  5889  5888  5889      1
  5890  5888  5891      1
  5891  5888  5892      1
  5892  5889  5890      1
  5893  5889  5893      1
  5894  5889  5894      1
  5895  5890  5895      1
  5896  5895  5896      1
  5897  5895  5898      1
  5898  5895  5899      1
  5899  5896  5897      1
  5900  5896  5900      1
  5901  5896  5901      1
  5902  5897  5902      1
  5903  5902  5903      1
  5904  5902  5905      1
  5905  5902  5906      1
  5906  5903  5904      1
  5907  5903  5907      1
  5908  5903  5908      1
  5909  5904  5909      1
  5910  5909  5910      1
  5911  5909  5912      1
  5912  5909  5913      1
  5913  5910  5911      1
  5914  5910  5914      1
  5915  5910  5915      1
  5916  5911  5916      1
  5917  5916  5917      1
  5918  5916  5919      1
  5919  5916  5920      1
  5920  5917  5918      1
  5921  5917  5921      1
  5922  5917  5922      1
  5923  5918  5923      1
  5924  5923  5924      1
  5925  5923  5926      1
  5926  5923  5927      1
  5927  5924  5925      1
  5928  5924  5928      1
  5929  5924  5929      1
  5930  5925  5930      1
  5931  5930  5931      1
  5932  5930  5933      1
  5933  5930  5934      1
  5934  5931  5932      1
  5935  5931  5935      1
  5936  5931  5936      1
  5937  5932  5937      1
  5938  5937  5938      1
  5939  5937  5940      1
  5940  5937  5941      1
  5941  5938  5939      1
  5942  5938  5942      1
  5943  5938  5943      1
  5944  5939  5944      1
  5945  5944  5945      1
  5946  5944  5947      1
  5947  5944  5948      1
  5948  5945  5946      1
  5949  5945  5949      1
  5950  5945  5950      1
  5951  5946  5951      1
  5952  5951  5952      1
  5953  5951  5954      1
  5954  5951  5955      1
  5955  5952  5953      1
  5956  5952  5956      1
  5957  5952  5957      1
  5958  5953  5958      1
  5959  5958  5959      1
  5960  5958  5961      1
  5961  5958  5962      1
  5962  5959  5960      1
  5963  5959  5963      1
  5964  5959  5964      1
  5965  5960  5965      1
  5966  5965  5966      1
  5967  5965  5968      1
  5968  5965  5969      1
  5969  5966  5967      1
  5970  5966  5970      1
  5971  5966  5971      1
  5972  5967  5972      1
  5973  5972  5973      1
  5974  5972  5975      1
  5975  5972  5976      1
  5976  5973  5974      1
  5977  5973  5977      1
  5978  5973  5978      1
  5979  5974  5979      1
  5980  5979  5980      1
  5981  5979  5982      1
  5982  5979  5983      1
  5983  5980  5981      1
  5984  5980  5984      1
  5985  5980  5985      1
  5986  5981  5986      1
  5987  5986  5987      1
  5988  5986  5989      1
  5989  5986  5990      1
  5990  5987  5988      1
  5991  5987  5991      1
  5992  5987  5992      1
  5993  5988  5993      1
  5994  5993  5994      1
  5995  5993  5996      1
  5996  5993  5997      1
  5997  5994  5995      1
  5998  5994  5998      1
  5999  5994  5999      1
  6000  5995  6000      1
  6001  6000  6001      1
  6002  6000  6003      1
  6003  6000  6004      1
  6004  6001  6002      1
  6005  6001  6005      1
  6006  6001  6006      1
  6007  6002  6007      1
  6008  6007  6008      1
  6009  6007  6010      1
  6010  6007  6011      1
  6011  6008  6009      1
  6012  6008  6012      1
  6013  6008  6013      1
  6014  6009  6014      1
  6015  6014  6015      1
  6016  6014  6017      1
  6017  6014  6018      1
  6018  6015  6016      1
  6019  6015  6019      1
  6020  6015  6020      1
  6021  6016  6021      1
  6022  6021  6022      1
  6023  6021  6024      1
  6024  6021  6025      1
  6025  6022  6023      1
  6026  6022  6026      1
  6027  6022  6027      1
  6028  6023  6028      1
  6029  6028  6029      1
  6030  6028  6031      1
  6031  6028  6032      1
  6032  6029  6030      1
  6033  6029  6033      1
  6034  6029  6034      1
  6035  6030  6035      1
  6036  6035  6036      1
  6037  6035  6038      1
  6038  6035  6039      1
  6039  6036  6037      1
  6040  6036  6040      1
  6041  6036  6041      1
  6042  6037  6042      1
  6043  6042  6043      1
  6044  6042  6045      1
  6045  6042  6046      1
  6046  6043  6044      1
  6047  6043  6047      1
  6048  6043  6048      1
  6049  6044  6049      1
  6050  6049  6050      1
  6051  6049  6052      1
  6052  6049  6053      1
  6053  6050  6051      1
  6054  6050  6054      1
  6055  6050  6055      1
  6056  6051  6056      1
  6057  6056  6057      1
  6058  6056  6059      1
  6059  6056  6060      1
  6060  6057  6058      1
  6061  6057  6061      1
  6062  6057  6062      1
  6063  6058  6063      1
  6064  6063  6064      1
  6065  6063  6066      1
  6066  6063  6067      1
  6067  6064  6065      1
  6068  6064  6068      1
  6069  6064  6069      1
  6070  6065  6070      1
  6071  6070  6071      1
  6072  6070  6073      1
  6073  6070  6074      1
  6074  6071  6072      1
  6075  6071  6075      1
  6076  6071  6076      1
  6077  6072  6077      1
  6078  6077  6078      1
  6079  6077  6080      1
  6080  6077  6081      1
  6081  6078  6079      1
  6082  6078  6082      1
  6083  6078  6083      1
  6084  6079  6084      1
  6085  6084  6085      1
  6086  6084  6087      1
  6087  6084  6088      1
  6088  6085  6086      1
  6089  6085  6089      1
  6090  6085  6090      1
  6091  6086  6091      1
  6092  6091  6092      1
  6093  6091  6094      1
  6094  6091  6095      1
  6095  6092  6093      1
  6096  6092  6096      1
  6097  6092  6097      1
  6098  6093  6098      1
  6099  6098  6099      1
  6100  6098  6101      1
  6101  6098  6102      1
  6102  6099  6100      1
  6103  6099  6103      1
  6104  6099  6104      1
  6105  6100  6105      1
  6106  6105  6106      1
  6107  6105  6108      1
  6108  6105  6109      1
  6109  6106  6107      1
  6110  6106  6110      1
  6111  6106  6111      1
  6112  6107  6112      1
  6113  6112  6113      1
  6114  6112  6115      1
  6115  6112  6116      1
  6116  6113  6114      1
  6117  6113  6117      1
  6118  6113  6118      1
  6119  6114  6119      1
  6120  6119  6120      1
  6121  6119  6122      1
  6122  6119  6123      1
  6123  6120  6121      1
  6124  6120  6124      1
  6125  6120  6125      1
  6126  6121  6126      1
  6127  6126  6127      1
  6128  6126  6129      1
  6129  6126  6130      1
  6130  6127  6128      1
  6131  6127  6131      1
  6132  6127  6132      1
  6133  6128  6133      1
  6134  6133  6134      1
  6135  6133  6136      1
  6136  6133  6137      1
  6137  6134  6135      1
  6138  6134  6138      1
  6139  6134  6139      1
  6140  6135  6140      1
  6141  6140  6141      1
  6142  6140  6143      1
  6143  6140  6144      1
  6144  6141  6142      1
  6145  6141  6145      1
  6146  6141  6146      1
  6147  6142  6147      1
  6148  6147  6148      1
  6149  6147  6150      1
  6150  6147  6151      1
  6151  6148  6149      1
  6152  6148  6152      1
  6153  6148  6153      1
  6154  6149  6154      1
  6155  6154  6155      1
  6156  6154  6157      1
  6157  6154  6158      1
  6158  6155  6156      1
  6159  6155  6159      1
  6160  6155  6160      1
  6161  6156  6161      1
  6162  6161  6162      1
  6163  6161  6164      1
  6164  6161  6165      1
  6165  6162  6163      1
  6166  6162  6166      1
  6167  6162  6167      1
  6168  6163  6168      1
  6169  6168  6169      1
  6170  6168  6171      1
  6171  6168  6172      1
  6172  6169  6170      1
  6173  6169  6173      1
  6174  6169  6174      1
  6175  6170  6175      1
  6176  6175  6176      1
  6177  6175  6178      1
  6178  6175  6179      1
  6179  6176  6177      1
  6180  6176  6180      1
  6181  6176  6181      1
  6182  6177  6182      1
  6183  6182  6183      1
  6184  6182  6185      1
  6185  6182  6186      1
  6186  6183  6184      1
  6187  6183  6187      1
  6188  6183  6188      1
  6189  6184  6189      1
  6190  6189  6190      1
  6191  6189  6192      1
  6192  6189  6193      1
  6193  6190  6191      1
  6194  6190  6194      1
  6195  6190  6195      1
  6196  6191  6196      1
  6197  6196  6197      1
  6198  6196  6199      1
  6199  6196  6200      1
  6200  6197  6198      1
  6201  6197  6201      1
  6202  6197  6202      1
  6203  6198  6203      1
  6204  6203  6204      1
  6205  6203  6206      1
  6206  6203  6207      1
  6207  6204  6205      1
  6208  6204  6208      1
  6209  6204  6209      1
  6210  6205  6210      1
  6211  6210  6211      1
  6212  6210  6213      1
  6213  6210  6214      1
  6214  6211  6212      1
  6215  6211  6215      1
  6216  6211  6216      1
  6217  6212  6217      1
  6218  6217  6218      1
  6219  6217  6220      1
  6220  6217  6221      1
  6221  6218  6219      1
  6222  6218  6222      1
  6223  6218  6223      1
  6224  6219  6224      1
  6225  6224  6225      1
  6226  6224  6227      1
  6227  6224  6228      1
  6228  6225  6226      1
  6229  6225  6229      1
  6230  6225  6230      1
  6231  6226  6231      1
  6232  6231  6232      1
  6233  6231  6234      1
  6234  6231  6235      1
  6235  6232  6233      1
  6236  6232  6236      1
  6237  6232  6237      1
  6238  6233  6238      1
  6239  6238  6239      1
  6240  6238  6241      1
  6241  6238  6242      1
  6242  6239  6240      1
  6243  6239  6243      1
  6244  6239  6244      1
  6245  6240  6245      1
  6246  6245  6246      1
  6247  6245  6248      1
  6248  6245  6249      1
  6249  6246  6247      1
  6250  6246  6250      1
  6251  6246  6251      1
  6252  6247  6252      1
  6253  6252  6253      1
  6254  6252  6255      1
  6255  6252  6256      1
  6256  6253  6254      1
  6257  6253  6257      1
  6258  6253  6258      1
  6259  6254  6259      1
  6260  6259  6260      1
  6261  6259  6262      1
  6262  6259  6263      1
  6263  6260  6261      1
  6264  6260  6264      1
  6265  6260  6265      1
  6266  6261  6266      1
  6267  6266  6267      1
  6268  6266  6269      1
  6269  6266  6270      1
  6270  6267  6268      1
  6271  6267  6271      1
  6272  6267  6272      1
  6273  6268  6273      1
  6274  6273  6274      1
  6275  6273  6276      1
  6276  6273  6277      1
  6277  6274  6275      1
  6278  6274  6278      1
  6279  6274  6279      1
  6280  6275  6280      1
  6281  6280  6281      1
  6282  6280  6283      1
  6283  6280  6284      1
  6284  6281  6282      1
  6285  6281  6285      1
  6286  6281  6286      1
  6287  6282  6287      1
  6288  6287  6288      1
  6289  6287  6290      1
  6290  6287  6291      1
  6291  6288  6289      1
  6292  6288  6292      1
  6293  6288  6293      1
  6294  6289  6294      1
  6295  6294  6295      1
  6296  6294  6297      1
  6297  6294  6298      1
  6298  6295  6296      1
  6299  6295  6299      1
  6300  6295  6300      1
  6301  6296  6301      1
  6302  6301  6302      1
  6303  6301  6304      1
  6304  6301  6305      1
  6305  6302  6303      1
  6306  6302  6306      1
  6307  6302  6307      1
  6308  6303  6308      1
  6309  6308  6309      1
  6310  6308  6311      1
  6311  6308  6312      1
  6312  6309  6310      1
  6313  6309  6313      1
  6314  6309  6314      1
  6315  6310  6315      1
  6316  6315  6316      1
  6317  6315  6318      1
  6318  6315  6319      1
  6319  6316  6317      1
  6320  6316  6320      1
  6321  6316  6321      1
  6322  6317  6322      1
  6323  6322  6323      1
  6324  6322  6325      1
  6325  6322  6326      1
  6326  6323  6324      1
  6327  6323  6327      1
  6328  6323  6328      1
  6329  6324  6329      1
  6330  6329  6330      1
  6331  6329  6332      1
  6332  6329  6333      1
  6333  6330  6331      1
  6334  6330  6334      1
  6335  6330  6335      1
  6336  6331  6336      1
  6337  6336  6337      1
  6338  6336  6339      1
  6339  6336  6340      1
  6340  6337  6338      1
  6341  6337  6341      1
  6342  6337  6342      1
  6343  6338  6343      1
  6344  6343  6344      1
  6345  6343  6346      1
  6346  6343  6347      1
  6347  6344  6345      1
  6348  6344  6348      1
  6349  6344  6349      1
  6350  6345  6350      1
  6351  6350  6351      1
  6352  6350  6353      1
  6353  6350  6354      1
  6354  6351  6352      1
  6355  6351  6355      1
  6356  6351  6356      1
  6357  6352  6357      1
  6358  6357  6358      1
  6359  6357  6360      1
  6360  6357  6361      1
  6361  6358  6359      1
  6362  6358  6362      1
  6363  6358  6363      1
  6364  6359  6364      1
  6365  6364  6365      1
  6366  6364  6367      1
  6367  6364  6368      1
  6368  6365  6366      1
  6369  6365  6369      1
  6370  6365  6370      1
  6371  6366  6371      1
  6372  6371  6372      1
  6373  6371  6374      1
  6374  6371  6375      1
  6375  6372  6373      1
  6376  6372  6376      1
  6377  6372  6377      1
  6378  6373  6378      1
  6379  6378  6379      1
  6380  6378  6381      1
  6381  6378  6382      1
  6382  6379  6380      1
  6383  6379  6383      1
  6384  6379  6384      1
  6385  6380  6385      1
  6386  6385  6386      1
  6387  6385  6388      1
  6388  6385  6389      1
  6389  6386  6387      1
  6390  6386  6390      1
  6391  6386  6391      1
  6392  6387  6392      1
  6393  6392  6393      1
  6394  6392  6395      1
  6395  6392  6396      1
  6396  6393  6394      1
  6397  6393  6397      1
  6398  6393  6398      1
  6399  6394  6399      1
  6400  6399  6400      1
  6401  6399  6402      1
  6402  6399  6403      1
  6403  6400  6401      1
  6404  6400  6404      1
  6405  6400  6405      1
  6406  6401  6406      1
  6407  6406  6407      1
  6408  6406  6409      1
  6409  6406  6410      1
  6410  6407  6408      1
  6411  6407  6411      1
  6412  6407  6412      1
  6413  6408  6413      1
  6414  6413  6414      1
  6415  6413  6416      1
  6416  6413  6417      1
  6417  6414  6415      1
  6418  6414  6418      1
  6419  6414  6419      1
  6420  6415  6420      1
  6421  6420  6421      1
  6422  6420  6423      1
  6423  6420  6424      1
  6424  6421  6422      1
  6425  6421  6425      1
  6426  6421  6426      1
  6427  6422  6427      1
  6428  6427  6428      1
  6429  6427  6430      1
  6430  6427  6431      1
  6431  6428  6429      1
  6432  6428  6432      1
  6433  6428  6433      1
  6434  6429  6434      1
  6435  6434  6435      1
  6436  6434  6437      1
  6437  6434  6438      1
  6438  6435  6436      1
  6439  6435  6439      1
  6440  6435  6440      1
  6441  6436  6441      1
  6442  6441  6442      1
  6443  6441  6444      1
  6444  6441  6445      1
  6445  6442  6443      1
  6446  6442  6446      1
  6447  6442  6447      1
  6448  6443  6448      1
  6449  6448  6449      1
  6450  6448  6451      1
  6451  6448  6452      1
  6452  6449  6450      1
  6453  6449  6453      1
  6454  6449  6454      1
  6455  6450  6455      1
  6456  6455  6456      1
  6457  6455  6458      1
  6458  6455  6459      1
  6459  6456  6457      1
  6460  6456  6460      1
  6461  6456  6461      1
  6462  6457  6462      1
  6463  6462  6463      1
  6464  6462  6465      1
  6465  6462  6466      1
  6466  6463  6464      1
  6467  6463  6467      1
  6468  6463  6468      1
  6469  6464  6469      1
  6470  6469  6470      1
  6471  6469  6472      1
  6472  6469  6473      1
  6473  6470  6471      1
  6474  6470  6474      1
  6475  6470  6475      1
  6476  6471  6476      1
  6477  6476  6477      1
  6478  6476  6479      1
  6479  6476  6480      1
  6480  6477  6478      1
  6481  6477  6481      1
  6482  6477  6482      1
  6483  6478  6483      1
  6484  6483  6484      1
  6485  6483  6486      1
  6486  6483  6487      1
  6487  6484  6485      1
  6488  6484  6488      1
  6489  6484  6489      1
  6490  6485  6490      1
  6491  6490  6491      1
  6492  6490  6493      1
  6493  6490  6494      1
  6494  6491  6492      1
  6495  6491  6495      1
  6496  6491  6496      1
  6497  6492  6497      1
  6498  6497  6498      1
  6499  6497  6500      1
  6500  6497  6501      1
  6501  6498  6499      1
  6502  6498  6502      1
  6503  6498  6503      1
  6504  6499  6504      1
  6505  6504  6505      1
  6506  6504  6507      1
  6507  6504  6508      1
  6508  6505  6506      1
  6509  6505  6509      1
  6510  6505  6510      1
  6511  6506  6511      1
  6512  6511  6512      1
  6513  6511  6514      1
  6514  6511  6515      1
  6515  6512  6513      1
  6516  6512  6516      1
  6517  6512  6517      1
  6518  6513  6518      1
  6519  6518  6519      1
  6520  6518  6521      1
  6521  6518  6522      1
  6522  6519  6520      1
  6523  6519  6523      1
  6524  6519  6524      1
  6525  6520  6525      1
  6526  6525  6526      1
  6527  6525  6528      1
  6528  6525  6529      1
  6529  6526  6527      1
  6530  6526  6530      1
  6531  6526  6531      1
  6532  6527  6532      1
  6533  6532  6533      1
  6534  6532  6535      1
  6535  6532  6536      1
  6536  6533  6534      1
  6537  6533  6537      1
  6538  6533  6538      1
  6539  6534  6539      1
  6540  6539  6540      1
  6541  6539  6542      1
  6542  6539  6543      1
  6543  6540  6541      1
  6544  6540  6544      1
  6545  6540  6545      1
  6546  6541  6546      1
  6547  6546  6547      1
  6548  6546  6549      1
  6549  6546  6550      1
  6550  6547  6548      1
  6551  6547  6551      1
  6552  6547  6552      1
  6553  6548  6553      1
  6554  6553  6554      1
  6555  6553  6556      1
  6556  6553  6557      1
  6557  6554  6555      1
  6558  6554  6558      1
  6559  6554  6559      1
  6560  6555  6560      1
  6561  6560  6561      1
  6562  6560  6563      1
  6563  6560  6564      1
  6564  6561  6562      1
  6565  6561  6565      1
  6566  6561  6566      1
  6567  6562  6567      1
  6568  6567  6568      1
  6569  6567  6570      1
  6570  6567  6571      1
  6571  6568  6569      1
  6572  6568  6572      1
  6573  6568  6573      1
  6574  6569  6574      1
  6575  6574  6575      1
  6576  6574  6577      1
  6577  6574  6578      1
  6578  6575  6576      1
  6579  6575  6579      1
  6580  6575  6580      1
  6581  6576  6581      1
  6582  6581  6582      1
  6583  6581  6584      1
  6584  6581  6585      1
  6585  6582  6583      1
  6586  6582  6586      1
  6587  6582  6587      1
  6588  6583  6588      1
  6589  6588  6589      1
  6590  6588  6591      1
  6591  6588  6592      1
  6592  6589  6590      1
  6593  6589  6593      1
  6594  6589  6594      1
  6595  6590  6595      1
  6596  6595  6596      1
  6597  6595  6598      1
  6598  6595  6599      1
  6599  6596  6597      1
  6600  6596  6600      1
  6601  6596  6601      1
  6602  6597  6602      1
  6603  6602  6603      1
  6604  6602  6605      1
  6605  6602  6606      1
  6606  6603  6604      1
  6607  6603  6607      1
  6608  6603  6608      1
  6609  6604  6609      1
  6610  6609  6610      1
  6611  6609  6612      1
  6612  6609  6613      1
  6613  6610  6611      1
  6614  6610  6614      1
  6615  6610  6615      1
  6616  6611  6616      1
  6617  6616  6617      1
  6618  6616  6619      1
  6619  6616  6620      1
  6620  6617  6618      1
  6621  6617  6621      1
  6622  6617  6622      1
  6623  6618  6623      1
  6624  6623  6624      1
  6625  6623  6626      1
  6626  6623  6627      1
  6627  6624  6625      1
  6628  6624  6628      1
  6629  6624  6629      1
  6630  6625  6630      1
  6631  6630  6631      1
  6632  6630  6633      1
  6633  6630  6634      1
  6634  6631  6632      1
  6635  6631  6635      1
  6636  6631  6636      1
  6637  6632  6637      1
  6638  6637  6638      1
  6639  6637  6640      1
  6640  6637  6641      1
  6641  6638  6639      1
  6642  6638  6642      1
  6643  6638  6643      1
  6644  6639  6644      1
  6645  6644  6645      1
  6646  6644  6647      1
  6647  6644  6648      1
  6648  6645  6646      1
  6649  6645  6649      1
  6650  6645  6650      1
  6651  6646  6651      1
  6652  6651  6652      1
  6653  6651  6654      1
  6654  6651  6655      1
  6655  6652  6653      1
  6656  6652  6656      1
  6657  6652  6657      1
  6658  6653  6658      1
  6659  6658  6659      1
  6660  6658  6661      1
  6661  6658  6662      1
  6662  6659  6660      1
  6663  6659  6663      1
  6664  6659  6664      1
  6665  6660  6665      1
  6666  6665  6666      1
  6667  6665  6668      1
  6668  6665  6669      1
  6669  6666  6667      1
  6670  6666  6670      1
  6671  6666  6671      1
  6672  6667  6672      1
  6673  6672  6673      1
  6674  6672  6675      1
  6675  6672  6676      1
  6676  6673  6674      1
  6677  6673  6677      1
  6678  6673  6678      1
  6679  6674  6679      1
  6680  6679  6680      1
  6681  6679  6682      1
  6682  6679  6683      1
  6683  6680  6681      1
  6684  6680  6684      1
  6685  6680  6685      1
  6686  6681  6686      1
  6687  6686  6687      1
  6688  6686  6689      1
  6689  6686  6690      1
  6690  6687  6688      1
  6691  6687  6691      1
  6692  6687  6692      1
  6693  6688  6693      1
  6694  6693  6694      1
  6695  6693  6696      1
  6696  6693  6697      1
  6697  6694  6695      1
  6698  6694  6698      1
  6699  6694  6699      1
  6700  6695  6700      1
  6701  6700  6701      1
  6702  6700  6703      1
  6703  6700  6704      1
  6704  6701  6702      1
  6705  6701  6705      1
  6706  6701  6706      1
  6707  6702  6707      1
  6708  6707  6708      1
  6709  6707  6710      1
  6710  6707  6711      1
  6711  6708  6709      1
  6712  6708  6712      1
  6713  6708  6713      1
  6714  6709  6714      1
  6715  6714  6715      1
  6716  6714  6717      1
  6717  6714  6718      1
  6718  6715  6716      1
  6719  6715  6719      1
  6720  6715  6720      1
  6721  6716  6721      1
  6722  6721  6722      1
  6723  6721  6724      1
  6724  6721  6725      1
  6725  6722  6723      1
  6726  6722  6726      1
  6727  6722  6727      1
  6728  6723  6728      1
  6729  6728  6729      1
  6730  6728  6731      1
  6731  6728  6732      1
  6732  6729  6730      1
  6733  6729  6733      1
  6734  6729  6734      1
  6735  6730  6735      1
  6736  6735  6736      1
  6737  6735  6738      1
  6738  6735  6739      1
  6739  6736  6737      1
  6740  6736  6740      1
  6741  6736  6741      1
  6742  6737  6742      1
  6743  6742  6743      1
  6744  6742  6745      1
  6745  6742  6746      1
  6746  6743  6744      1
  6747  6743  6747      1
  6748  6743  6748      1
  6749  6744  6749      1
  6750  6749  6750      1
  6751  6749  6752      1
  6752  6749  6753      1
  6753  6750  6751      1
  6754  6750  6754      1
  6755  6750  6755      1
  6756  6751  6756      1
  6757  6756  6757      1
  6758  6756  6759      1
  6759  6756  6760      1
  6760  6757  6758      1
  6761  6757  6761      1
  6762  6757  6762      1
  6763  6758  6763      1
  6764  6763  6764      1
  6765  6763  6766      1
  6766  6763  6767      1
  6767  6764  6765      1
  6768  6764  6768      1
  6769  6764  6769      1
  6770  6765  6770      1
  6771  6770  6771      1
  6772  6770  6773      1
  6773  6770  6774      1
  6774  6771  6772      1
  6775  6771  6775      1
  6776  6771  6776      1
  6777  6772  6777      1
  6778  6777  6778      1
  6779  6777  6780      1
  6780  6777  6781      1
  6781  6778  6779      1
  6782  6778  6782      1
  6783  6778  6783      1
  6784  6779  6784      1
  6785  6784  6785      1
  6786  6784  6787      1
  6787  6784  6788      1
  6788  6785  6786      1
  6789  6785  6789      1
  6790  6785  6790      1
  6791  6786  6791      1
  6792  6791  6792      1
  6793  6791  6794      1
  6794  6791  6795      1
  6795  6792  6793      1
  6796  6792  6796      1
  6797  6792  6797      1
  6798  6793  6798      1
  6799  6798  6799      1
  6800  6798  6801      1
  6801  6798  6802      1
  6802  6799  6800      1
  6803  6799  6803      1
  6804  6799  6804      1
  6805  6800  6805      1
  6806  6805  6806      1
  6807  6805  6808      1
  6808  6805  6809      1
  6809  6806  6807      1
  6810  6806  6810      1
  6811  6806  6811      1
  6812  6807  6812      1
  6813  6812  6813      1
  6814  6812  6815      1
  6815  6812  6816      1
  6816  6813  6814      1
  6817  6813  6817      1
  6818  6813  6818      1
  6819  6814  6819      1
  6820  6819  6820      1
  6821  6819  6822      1
  6822  6819  6823      1
  6823  6820  6821      1
  6824  6820  6824      1
  6825  6820  6825      1
  6826  6821  6826      1
  6827  6826  6827      1
  6828  6826  6829      1
  6829  6826  6830      1
  6830  6827  6828      1
  6831  6827  6831      1
  6832  6827  6832      1
  6833  6828  6833      1
  6834  6833  6834      1
  6835  6833  6836      1
  6836  6833  6837      1
  6837  6834  6835      1
  6838  6834  6838      1
  6839  6834  6839      1
  6840  6835  6840      1
  6841  6840  6841      1
  6842  6840  6843      1
  6843  6840  6844      1
  6844  6841  6842      1
  6845  6841  6845      1
  6846  6841  6846      1
  6847  6842  6847      1
  6848  6847  6848      1
  6849  6847  6850      1
  6850  6847  6851      1
  6851  6848  6849      1
  6852  6848  6852      1
  6853  6848  6853      1
  6854  6849  6854      1
  6855  6854  6855      1
  6856  6854  6857      1
  6857  6854  6858      1
  6858  6855  6856      1
  6859  6855  6859      1
  6860  6855  6860      1
  6861  6856  6861      1
  6862  6861  6862      1
  6863  6861  6864      1
  6864  6861  6865      1
  6865  6862  6863      1
  6866  6862  6866      1
  6867  6862  6867      1
  6868  6863  6868      1
  6869  6868  6869      1
  6870  6868  6871      1
  6871  6868  6872      1
  6872  6869  6870      1
  6873  6869  6873      1
  6874  6869  6874      1
  6875  6870  6875      1
  6876  6875  6876      1
  6877  6875  6878      1
  6878  6875  6879      1
  6879  6876  6877      1
  6880  6876  6880      1
  6881  6876  6881      1
  6882  6877  6882      1
  6883  6882  6883      1
  6884  6882  6885      1
  6885  6882  6886      1
  6886  6883  6884      1
  6887  6883  6887      1
  6888  6883  6888      1
  6889  6884  6889      1
  6890  6889  6890      1
  6891  6889  6892      1
  6892  6889  6893      1
  6893  6890  6891      1
  6894  6890  6894      1
  6895  6890  6895      1
  6896  6891  6896      1
  6897  6896  6897      1
  6898  6896  6899      1
  6899  6896  6900      1
  6900  6897  6898      1
  6901  6897  6901      1
  6902  6897  6902      1
  6903  6898  6903      1
  6904  6903  6904      1
  6905  6903  6906      1
  6906  6903  6907      1
  6907  6904  6905      1
  6908  6904  6908      1
  6909  6904  6909      1
  6910  6905  6910      1
  6911  6910  6911      1
  6912  6910  6913      1
  6913  6910  6914      1
  6914  6911  6912      1
  6915  6911  6915      1
  6916  6911  6916      1
  6917  6912  6917      1
  6918  6917  6918      1
  6919  6917  6920      1
  6920  6917  6921      1
  6921  6918  6919      1
  6922  6918  6922      1
  6923  6918  6923      1
  6924  6919  6924      1
  6925  6924  6925      1
  6926  6924  6927      1
  6927  6924  6928      1
  6928  6925  6926      1
  6929  6925  6929      1
  6930  6925  6930      1
  6931  6926  6931      1
  6932  6931  6932      1
  6933  6931  6934      1
  6934  6931  6935      1
  6935  6932  6933      1
  6936  6932  6936      1
  6937  6932  6937      1
  6938  6933  6938      1
  6939  6938  6939      1
  6940  6938  6941      1
  6941  6938  6942      1
  6942  6939  6940      1
  6943  6939  6943      1
  6944  6939  6944      1
  6945  6940  6945      1
  6946  6945  6946      1
  6947  6945  6948      1
  6948  6945  6949      1
  6949  6946  6947      1
  6950  6946  6950      1
  6951  6946  6951      1
  6952  6947  6952      1
  6953  6952  6953      1
  6954  6952  6955      1
  6955  6952  6956      1
  6956  6953  6954      1
  6957  6953  6957      1
  6958  6953  6958      1
  6959  6954  6959      1
  6960  6959  6960      1
  6961  6959  6962      1
  6962  6959  6963      1
  6963  6960  6961      1
  6964  6960  6964      1
  6965  6960  6965      1
  6966  6961  6966      1
  6967  6966  6967      1
  6968  6966  6969      1
  6969  6966  6970      1
  6970  6967  6968      1
  6971  6967  6971      1
  6972  6967  6972      1
  6973  6968  6973      1
  6974  6973  6974      1
  6975  6973  6976      1
  6976  6973  6977      1
  6977  6974  6975      1
  6978  6974  6978      1
  6979  6974  6979      1
  6980  6975  6980      1
  6981  6980  6981      1
  6982  6980  6983      1
  6983  6980  6984      1
  6984  6981  6982      1
  6985  6981  6985      1
  6986  6981  6986      1
  6987  6982  6987      1
  6988  6987  6988      1
  6989  6987  6990      1
  6990  6987  6991      1
  6991  6988  6989      1
  6992  6988  6992      1
  6993  6988  6993      1
  6994  6989  6994      1
  6995  6994  6995      1
  6996  6994  6997      1
  6997  6994  6998      1
  6998  6995  6996      1
  6999  6995  6999      1
  7000  6995  7000      1
  7001  6996  7001      1
  7002  7001  7002      1
  7003  7001  7004      1
  7004  7001  7005      1
  7005  7002  7003      1
  7006  7002  7006      1
  7007  7002  7007      1
  7008  7003  7008      1
  7009  7008  7009      1
  7010  7008  7011      1
  7011  7008  7012      1
  7012  7009  7010      1
  7013  7009  7013      1
  7014  7009  7014      1
  7015  7010  7015      1
  7016  7015  7016      1
  7017  7015  7018      1
  7018  7015  7019      1
  7019  7016  7017      1
  7020  7016  7020      1
  7021  7016  7021      1
  7022  7017  7022      1
  7023  7022  7023      1
  7024  7022  7025      1
  7025  7022  7026      1
  7026  7023  7024      1
  7027  7023  7027      1
  7028  7023  7028      1
  7029  7024  7029      1
  7030  7029  7030      1
  7031  7029  7032      1
  7032  7029  7033      1
  7033  7030  7031      1
  7034  7030  7034      1
  7035  7030  7035      1
  7036  7031  7036      1
  7037  7036  7037      1
  7038  7036  7039      1
  7039  7036  7040      1
  7040  7037  7038      1
  7041  7037  7041      1
  7042  7037  7042      1
  7043  7038  7043      1
  7044  7043  7044      1
  7045  7043  7046      1
  7046  7043  7047      1
  7047  7044  7045      1
  7048  7044  7048      1
  7049  7044  7049      1
  7050  7045  7050      1
  7051  7050  7051      1
  7052  7050  7053      1
  7053  7050  7054      1
  7054  7051  7052      1
  7055  7051  7055      1
  7056  7051  7056      1
  7057  7052  7057      1
  7058  7057  7058      1
  7059  7057  7060      1
  7060  7057  7061      1
  7061  7058  7059      1
  7062  7058  7062      1
  7063  7058  7063      1
  7064  7059  7064      1
  7065  7064  7065      1
  7066  7064  7067      1
  7067  7064  7068      1
  7068  7065  7066      1
  7069  7065  7069      1
  7070  7065  7070      1
  7071  7066  7071      1
  7072  7071  7072      1
  7073  7071  7074      1
  7074  7071  7075      1
  7075  7072  7073      1
  7076  7072  7076      1
  7077  7072  7077      1
  7078  7073  7078      1
  7079  7078  7079      1
  7080  7078  7081      1
  7081  7078  7082      1
  7082  7079  7080      1
  7083  7079  7083      1
  7084  7079  7084      1
  7085  7080  7085      1
  7086  7085  7086      1
  7087  7085  7088      1
  7088  7085  7089      1
  7089  7086  7087      1
  7090  7086  7090      1
  7091  7086  7091      1
  7092  7087  7092      1
  7093  7092  7093      1
  7094  7092  7095      1
  7095  7092  7096      1
  7096  7093  7094      1
  7097  7093  7097      1
  7098  7093  7098      1
  7099  7094  7099      1
  7100  7099  7100      1
  7101  7099  7102      1
  7102  7099  7103      1
  7103  7100  7101      1
  7104  7100  7104      1
  7105  7100  7105      1
  7106  7101  7106      1
  7107  7106  7107      1
  7108  7106  7109      1
  7109  7106  7110      1
  7110  7107  7108      1
  7111  7107  7111      1
  7112  7107  7112      1
  7113  7108  7113      1
  7114  7113  7114      1
  7115  7113  7116      1
  7116  7113  7117      1
  7117  7114  7115      1
  7118  7114  7118      1
  7119  7114  7119      1
  7120  7115  7120      1
  7121  7120  7121      1
  7122  7120  7123      1
  7123  7120  7124      1
  7124  7121  7122      1
  7125  7121  7125      1
  7126  7121  7126      1
  7127  7122  7127      1
  7128  7127  7128      1
  7129  7127  7130      1
  7130  7127  7131      1
  7131  7128  7129      1
  7132  7128  7132      1
  7133  7128  7133      1
  7134  7129  7134      1
  7135  7134  7135      1
  7136  7134  7137      1
  7137  7134  7138      1
  7138  7135  7136      1
  7139  7135  7139      1
  7140  7135  7140      1
  7141  7136  7141      1
  7142  7141  7142      1
  7143  7141  7144      1
  7144  7141  7145      1
  7145  7142  7143      1
  7146  7142  7146      1
  7147  7142  7147      1
  7148  7143  7148      1
  7149  7148  7149      1
  7150  7148  7151      1
  7151  7148  7152      1
  7152  7149  7150      1
  7153  7149  7153      1
  7154  7149  7154      1
  7155  7150  7155      1
  7156  7155  7156      1
  7157  7155  7158      1
  7158  7155  7159      1
  7159  7156  7157      1
  7160  7156  7160      1
  7161  7156  7161      1
  7162  7157  7162      1
  7163  7162  7163      1
  7164  7162  7165      1
  7165  7162  7166      1
  7166  7163  7164      1
  7167  7163  7167      1
  7168  7163  7168      1
  7169  7164  7169      1
  7170  7169  7170      1
  7171  7169  7172      1
  7172  7169  7173      1
  7173  7170  7171      1
  7174  7170  7174      1
  7175  7170  7175      1
  7176  7171  7176      1
  7177  7176  7177      1
  7178  7176  7179      1
  7179  7176  7180      1
  7180  7177  7178      1
  7181  7177  7181      1
  7182  7177  7182      1
  7183  7178  7183      1
  7184  7183  7184      1
  7185  7183  7186      1
  7186  7183  7187      1
  7187  7184  7185      1
  7188  7184  7188      1
  7189  7184  7189      1
  7190  7185  7190      1
  7191  7190  7191      1
  7192  7190  7193      1
  7193  7190  7194      1
  7194  7191  7192      1
  7195  7191  7195      1
  7196  7191  7196      1
  7197  7192  7197      1
  7198  7197  7198      1
  7199  7197  7200      1
  7200  7197  7201      1
  7201  7198  7199      1
  7202  7198  7202      1
  7203  7198  7203      1
  7204  7199  7204      1
  7205  7204  7205      1
  7206  7204  7207      1
  7207  7204  7208      1
  7208  7205  7206      1
  7209  7205  7209      1
  7210  7205  7210      1
  7211  7206  7211      1
  7212  7211  7212      1
  7213  7211  7214      1
  7214  7211  7215      1
  7215  7212  7213      1
  7216  7212  7216      1
  7217  7212  7217      1
  7218  7213  7218      1
  7219  7218  7219      1
  7220  7218  7221      1
  7221  7218  7222      1
  7222  7219  7220      1
  7223  7219  7223      1
  7224  7219  7224      1
  7225  7220  7225      1
  7226  7225  7226      1
  7227  7225  7228      1
  7228  7225  7229      1
  7229  7226  7227      1
  7230  7226  7230      1
  7231  7226  7231      1
  7232  7227  7232      1
  7233  7232  7233      1
  7234  7232  7235      1
  7235  7232  7236      1
  7236  7233  7234      1
  7237  7233  7237      1
  7238  7233  7238      1
  7239  7234  7239      1
  7240  7239  7240      1
  7241  7239  7242      1
  7242  7239  7243      1
  7243  7240  7241      1
  7244  7240  7244      1
  7245  7240  7245      1
  7246  7241  7246      1
  7247  7246  7247      1
  7248  7246  7249      1
  7249  7246  7250      1
  7250  7247  7248      1
  7251  7247  7251      1
  7252  7247  7252      1
  7253  7248  7253      1
  7254  7253  7254      1
  7255  7253  7256      1
  7256  7253  7257      1
  7257  7254  7255      1
  7258  7254  7258      1
  7259  7254  7259      1
  7260  7255  7260      1
  7261  7260  7261      1
  7262  7260  7263      1
  7263  7260  7264      1
  7264  7261  7262      1
  7265  7261  7265      1
  7266  7261  7266      1
  7267  7262  7267      1
  7268  7267  7268      1
  7269  7267  7270      1
  7270  7267  7271      1
  7271  7268  7269      1
  7272  7268  7272      1
  7273  7268  7273      1
  7274  7269  7274      1
  7275  7274  7275      1
  7276  7274  7277      1
  7277  7274  7278      1
  7278  7275  7276      1
  7279  7275  7279      1
  7280  7275  7280      1
  7281  7276  7281      1
  7282  7281  7282      1
  7283  7281  7284      1
  7284  7281  7285      1
  7285  7282  7283      1
  7286  7282  7286      1
  7287  7282  7287      1
  7288  7283  7288      1
  7289  7288  7289      1
  7290  7288  7291      1
  7291  7288  7292      1
  7292  7289  7290      1
  7293  7289  7293      1
  7294  7289  7294      1
  7295  7290  7295      1
  7296  7295  7296      1
  7297  7295  7298      1
  7298  7295  7299      1
  7299  7296  7297      1
  7300  7296  7300      1
  7301  7296  7301      1
  7302  7297  7302      1
  7303  7302  7303      1
  7304  7302  7305      1
  7305  7302  7306      1
  7306  7303  7304      1
  7307  7303  7307      1
  7308  7303  7308      1
  7309  7304  7309      1
  7310  7309  7310      1
  7311  7309  7312      1
  7312  7309  7313      1
  7313  7310  7311      1
  7314  7310  7314      1
  7315  7310  7315      1
  7316  7311  7316      1
  7317  7316  7317      1
  7318  7316  7319      1
  7319  7316  7320      1
  7320  7317  7318      1
  7321  7317  7321      1
  7322  7317  7322      1
  7323  7318  7323      1
  7324  7323  7324      1
  7325  7323  7326      1
  7326  7323  7327      1
  7327  7324  7325      1
  7328  7324  7328      1
  7329  7324  7329      1
  7330  7325  7330      1
  7331  7330  7331      1
  7332  7330  7333      1
  7333  7330  7334      1
  7334  7331  7332      1
  7335  7331  7335      1
  7336  7331  7336      1
  7337  7332  7337      1
  7338  7337  7338      1
  7339  7337  7340      1
  7340  7337  7341      1
  7341  7338  7339      1
  7342  7338  7342      1
  7343  7338  7343      1
  7344  7339  7344      1
  7345  7344  7345      1
  7346  7344  7347      1
  7347  7344  7348      1
  7348  7345  7346      1
  7349  7345  7349      1
  7350  7345  7350      1
  7351  7346  7351      1
  7352  7351  7352      1
  7353  7351  7354      1
  7354  7351  7355      1
  7355  7352  7353      1
  7356  7352  7356      1
  7357  7352  7357      1
  7358  7353  7358      1
  7359  7358  7359      1
  7360  7358  7361      1
  7361  7358  7362      1
  7362  7359  7360      1
  7363  7359  7363      1
  7364  7359  7364      1
  7365  7360  7365      1
  7366  7365  7366      1
  7367  7365  7368      1
  7368  7365  7369      1
  7369  7366  7367      1
  7370  7366  7370      1
  7371  7366  7371      1
  7372  7367  7372      1
  7373  7372  7373      1
  7374  7372  7375      1
  7375  7372  7376      1
  7376  7373  7374      1
  7377  7373  7377      1
  7378  7373  7378      1
  7379  7374  7379      1
  7380  7379  7380      1
  7381  7379  7382      1
  7382  7379  7383      1
  7383  7380  7381      1
  7384  7380  7384      1
  7385  7380  7385      1
  7386  7381  7386      1
  7387  7386  7387      1
  7388  7386  7389      1
  7389  7386  7390      1
  7390  7387  7388      1
  7391  7387  7391      1
  7392  7387  7392      1
  7393  7388  7393      1
  7394  7393  7394      1
  7395  7393  7396      1
  7396  7393  7397      1
  7397  7394  7395      1
  7398  7394  7398      1
  7399  7394  7399      1
  7400  7395  7400      1
  7401  7400  7401      1
  7402  7400  7403      1
  7403  7400  7404      1
  7404  7401  7402      1
  7405  7401  7405      1
  7406  7401  7406      1
  7407  7402  7407      1
  7408  7407  7408      1
  7409  7407  7410      1
  7410  7407  7411      1
  7411  7408  7409      1
  7412  7408  7412      1
  7413  7408  7413      1
  7414  7409  7414      1
  7415  7414  7415      1
  7416  7414  7417      1
  7417  7414  7418      1
  7418  7415  7416      1
  7419  7415  7419      1
  7420  7415  7420      1
  7421  7416  7421      1
  7422  7421  7422      1
  7423  7421  7424      1
  7424  7421  7425      1
  7425  7422  7423      1
  7426  7422  7426      1
  7427  7422  7427      1
  7428  7423  7428      1
  7429  7428  7429      1
  7430  7428  7431      1
  7431  7428  7432      1
  7432  7429  7430      1
  7433  7429  7433      1
  7434  7429  7434      1
  7435  7430  7435      1
  7436  7435  7436      1
  7437  7435  7438      1
  7438  7435  7439      1
  7439  7436  7437      1
  7440  7436  7440      1
  7441  7436  7441      1
  7442  7437  7442      1
  7443  7442  7443      1
  7444  7442  7445      1
  7445  7442  7446      1
  7446  7443  7444      1
  7447  7443  7447      1
  7448  7443  7448      1
  7449  7444  7449      1
  7450  7449  7450      1
  7451  7449  7452      1
  7452  7449  7453      1
  7453  7450  7451      1
  7454  7450  7454      1
  7455  7450  7455      1
  7456  7451  7456      1
  7457  7456  7457      1
  7458  7456  7459      1
  7459  7456  7460      1
  7460  7457  7458      1
  7461  7457  7461      1
  7462  7457  7462      1
  7463  7458  7463      1
  7464  7463  7464      1
  7465  7463  7466      1
  7466  7463  7467      1
  7467  7464  7465      1
  7468  7464  7468      1
  7469  7464  7469      1
  7470  7465  7470      1
  7471  7470  7471      1
  7472  7470  7473      1
  7473  7470  7474      1
  7474  7471  7472      1
  7475  7471  7475      1
  7476  7471  7476      1
  7477  7472  7477      1
  7478  7477  7478      1
  7479  7477  7480      1
  7480  7477  7481      1
  7481  7478  7479      1
  7482  7478  7482      1
  7483  7478  7483      1
  7484  7479  7484      1
  7485  7484  7485      1
  7486  7484  7487      1
  7487  7484  7488      1
  7488  7485  7486      1
  7489  7485  7489      1
  7490  7485  7490      1
  7491  7486  7491      1
  7492  7491  7492      1
  7493  7491  7494      1
  7494  7491  7495      1
  7495  7492  7493      1
  7496  7492  7496      1
  7497  7492  7497      1
  7498  7493  7498      1
  7499  7498  7499      1
  7500  7498  7501      1
  7501  7498  7502      1
  7502  7499  7500      1
  7503  7499  7503      1
  7504  7499  7504      1
  7505  7500  7505      1
  7506  7505  7506      1
  7507  7505  7508      1
  7508  7505  7509      1
  7509  7506  7507      1
  7510  7506  7510      1
  7511  7506  7511      1
  7512  7507  7512      1
  7513  7512  7513      1
  7514  7512  7515      1
  7515  7512  7516      1
  7516  7513  7514      1
  7517  7513  7517      1
  7518  7513  7518      1
  7519  7514  7519      1
  7520  7519  7520      1
  7521  7519  7522      1
  7522  7519  7523      1
  7523  7520  7521      1
  7524  7520  7524      1
  7525  7520  7525      1
  7526  7521  7526      1
  7527  7526  7527      1
  7528  7526  7529      1
  7529  7526  7530      1
  7530  7527  7528      1
  7531  7527  7531      1
  7532  7527  7532      1
  7533  7528  7533      1
  7534  7533  7534      1
  7535  7533  7536      1
  7536  7533  7537      1
  7537  7534  7535      1
  7538  7534  7538      1
  7539  7534  7539      1
  7540  7535  7540      1
  7541  7540  7541      1
  7542  7540  7543      1
  7543  7540  7544      1
  7544  7541  7542      1
  7545  7541  7545      1
  7546  7541  7546      1
  7547  7542  7547      1
  7548  7547  7548      1
  7549  7547  7550      1
  7550  7547  7551      1
  7551  7548  7549      1
  7552  7548  7552      1
  7553  7548  7553      1
  7554  7549  7554      1
  7555  7554  7555      1
  7556  7554  7557      1
  7557  7554  7558      1
  7558  7555  7556      1
  7559  7555  7559      1
  7560  7555  7560      1
  7561  7556  7561      1
  7562  7561  7562      1
  7563  7561  7564      1
  7564  7561  7565      1
  7565  7562  7563      1
  7566  7562  7566      1
  7567  7562  7567      1
  7568  7563  7568      1
  7569  7568  7569      1
  7570  7568  7571      1
  7571  7568  7572      1
  7572  7569  7570      1
  7573  7569  7573      1
  7574  7569  7574      1
  7575  7570  7575      1
  7576  7575  7576      1
  7577  7575  7578      1
  7578  7575  7579      1
  7579  7576  7577      1
  7580  7576  7580      1
  7581  7576  7581      1
  7582  7577  7582      1
  7583  7582  7583      1
  7584  7582  7585      1
  7585  7582  7586      1
  7586  7583  7584      1
  7587  7583  7587      1
  7588  7583  7588      1
  7589  7584  7589      1
  7590  7589  7590      1
  7591  7589  7592      1
  7592  7589  7593      1
  7593  7590  7591      1
  7594  7590  7594      1
  7595  7590  7595      1
  7596  7591  7596      1
  7597  7596  7597      1
  7598  7596  7599      1
  7599  7596  7600      1
  7600  7597  7598      1
  7601  7597  7601      1
  7602  7597  7602      1
  7603  7598  7603      1
  7604  7603  7604      1
  7605  7603  7606      1
  7606  7603  7607      1
  7607  7604  7605      1
  7608  7604  7608      1
  7609  7604  7609      1
  7610  7605  7610      1
  7611  7610  7611      1
  7612  7610  7613      1
  7613  7610  7614      1
  7614  7611  7612      1
  7615  7611  7615      1
  7616  7611  7616      1
  7617  7612  7617      1
  7618  7617  7618      1
  7619  7617  7620      1
  7620  7617  7621      1
  7621  7618  7619      1
  7622  7618  7622      1
  7623  7618  7623      1
  7624  7619  7624      1
  7625  7624  7625      1
  7626  7624  7627      1
  7627  7624  7628      1
  7628  7625  7626      1
  7629  7625  7629      1
  7630  7625  7630      1
  7631  7626  7631      1
  7632  7631  7632      1
  7633  7631  7634      1
  7634  7631  7635      1
  7635  7632  7633      1
  7636  7632  7636      1
  7637  7632  7637      1
  7638  7633  7638      1
  7639  7638  7639      1
  7640  7638  7641      1
  7641  7638  7642      1
  7642  7639  7640      1
  7643  7639  7643      1
  7644  7639  7644      1
  7645  7640  7645      1
  7646  7645  7646      1
  7647  7645  7648      1
  7648  7645  7649      1
  7649  7646  7647      1
  7650  7646  7650      1
  7651  7646  7651      1
  7652  7647  7652      1
  7653  7652  7653      1
  7654  7652  7655      1
  7655  7652  7656      1
  7656  7653  7654      1
  7657  7653  7657      1
  7658  7653  7658      1
  7659  7654  7659      1
  7660  7659  7660      1
  7661  7659  7662      1
  7662  7659  7663      1
  7663  7660  7661      1
  7664  7660  7664      1
  7665  7660  7665      1
  7666  7661  7666      1
  7667  7666  7667      1
  7668  7666  7669      1
  7669  7666  7670      1
  7670  7667  7668      1
  7671  7667  7671      1
  7672  7667  7672      1
  7673  7668  7673      1
  7674  7673  7674      1
  7675  7673  7676      1
  7676  7673  7677      1
  7677  7674  7675      1
  7678  7674  7678      1
  7679  7674  7679      1
  7680  7675  7680      1
  7681  7680  7681      1
  7682  7680  7683      1
  7683  7680  7684      1
  7684  7681  7682      1
  7685  7681  7685      1
  7686  7681  7686      1
  7687  7682  7687      1
  7688  7687  7688      1
  7689  7687  7690      1
  7690  7687  7691      1
  7691  7688  7689      1
  7692  7688  7692      1
  7693  7688  7693      1
  7694  7689  7694      1
  7695  7694  7695      1
  7696  7694  7697      1
  7697  7694  7698      1
  7698  7695  7696      1
  7699  7695  7699      1
  7700  7695  7700      1
  7701  7696  7701      1
  7702  7701  7702      1
  7703  7701  7704      1
  7704  7701  7705      1
  7705  7702  7703      1
  7706  7702  7706      1
  7707  7702  7707      1
  7708  7703  7708      1
  7709  7708  7709      1
  7710  7708  7711      1
  7711  7708  7712      1
  7712  7709  7710      1
  7713  7709  7713      1
  7714  7709  7714      1
  7715  7710  7715      1
  7716  7715  7716      1
  7717  7715  7718      1
  7718  7715  7719      1
  7719  7716  7717      1
  7720  7716  7720      1
  7721  7716  7721      1
  7722  7717  7722      1
  7723  7722  7723      1
  7724  7722  7725      1
  7725  7722  7726      1
  7726  7723  7724      1
  7727  7723  7727      1
  7728  7723  7728      1
  7729  7724  7729      1
  7730  7729  7730      1
  7731  7729  7732      1
  7732  7729  7733      1
  7733  7730  7731      1
  7734  7730  7734      1
  7735  7730  7735      1
  7736  7731  7736      1
  7737  7736  7737      1
  7738  7736  7739      1
  7739  7736  7740      1
  7740  7737  7738      1
  7741  7737  7741      1
  7742  7737  7742      1
  7743  7738  7743      1
  7744  7743  7744      1
  7745  7743  7746      1
  7746  7743  7747      1
  7747  7744  7745      1
  7748  7744  7748      1
  7749  7744  7749      1
  7750  7745  7750      1
  7751  7750  7751      1
  7752  7750  7753      1
  7753  7750  7754      1
  7754  7751  7752      1
  7755  7751  7755      1
  7756  7751  7756      1
  7757  7752  7757      1
  7758  7757  7758      1
  7759  7757  7760      1
  7760  7757  7761      1
  7761  7758  7759      1
  7762  7758  7762      1
  7763  7758  7763      1
  7764  7759  7764      1
  7765  7764  7765      1
  7766  7764  7767      1
  7767  7764  7768      1
  7768  7765  7766      1
  7769  7765  7769      1
  7770  7765  7770      1
  7771  7766  7771      1
  7772  7771  7772      1
  7773  7771  7774      1
  7774  7771  7775      1
  7775  7772  7773      1
  7776  7772  7776      1
  7777  7772  7777      1
  7778  7773  7778      1
  7779  7778  7779      1
  7780  7778  7781      1
  7781  7778  7782      1
  7782  7779  7780      1
  7783  7779  7783      1
  7784  7779  7784      1
  7785  7780  7785      1
  7786  7785  7786      1
  7787  7785  7788      1
  7788  7785  7789      1
  7789  7786  7787      1
  7790  7786  7790      1
  7791  7786  7791      1
  7792  7787  7792      1
  7793  7792  7793      1
  7794  7792  7795      1
  7795  7792  7796      1
  7796  7793  7794      1
  7797  7793  7797      1
  7798  7793  7798      1
  7799  7794  7799      1
  7800  7799  7800      1
  7801  7799  7802      1
  7802  7799  7803      1
  7803  7800  7801      1
  7804  7800  7804      1
  7805  7800  7805      1
  7806  7801  7806      1
  7807  7806  7807      1
  7808  7806  7809      1
  7809  7806  7810      1
  7810  7807  7808      1
  7811  7807  7811      1
  7812  7807  7812      1
  7813  7808  7813      1
  7814  7813  7814      1
  7815  7813  7816      1
  7816  7813  7817      1
  7817  7814  7815      1
  7818  7814  7818      1
  7819  7814  7819      1
  7820  7815  7820      1
  7821  7820  7821      1
  7822  7820  7823      1
  7823  7820  7824      1
  7824  7821  7822      1
  7825  7821  7825      1
  7826  7821  7826      1
  7827  7822  7827      1
  7828  7827  7828      1
  7829  7827  7830      1
  7830  7827  7831      1
  7831  7828  7829      1
  7832  7828  7832      1
  7833  7828  7833      1
  7834  7829  7834      1
  7835  7834  7835      1
  7836  7834  7837      1
  7837  7834  7838      1
  7838  7835  7836      1
  7839  7835  7839      1
  7840  7835  7840      1
  7841  7836  7841      1
  7842  7841  7842      1
  7843  7841  7844      1
  7844  7841  7845      1
  7845  7842  7843      1
  7846  7842  7846      1
  7847  7842  7847      1
  7848  7843  7848      1
  7849  7848  7849      1
  7850  7848  7851      1
  7851  7848  7852      1
  7852  7849  7850      1
  7853  7849  7853      1
  7854  7849  7854      1
  7855  7850  7855      1
  7856  7855  7856      1
  7857  7855  7858      1
  7858  7855  7859      1
  7859  7856  7857      1
  7860  7856  7860      1
  7861  7856  7861      1
  7862  7857  7862      1
  7863  7862  7863      1
  7864  7862  7865      1
  7865  7862  7866      1
  7866  7863  7864      1
  7867  7863  7867      1
  7868  7863  7868      1
  7869  7864  7869      1
  7870  7869  7870      1
  7871  7869  7872      1
  7872  7869  7873      1
  7873  7870  7871      1
  7874  7870  7874      1
  7875  7870  7875      1
  7876  7871  7876      1
  7877  7876  7877      1
  7878  7876  7879      1
  7879  7876  7880      1
  7880  7877  7878      1
  7881  7877  7881      1
  7882  7877  7882      1
  7883  7878  7883      1
  7884  7883  7884      1
  7885  7883  7886      1
  7886  7883  7887      1
  7887  7884  7885      1
  7888  7884  7888      1
  7889  7884  7889      1
  7890  7885  7890      1
  7891  7890  7891      1
  7892  7890  7893      1
  7893  7890  7894      1
  7894  7891  7892      1
  7895  7891  7895      1
  7896  7891  7896      1
  7897  7892  7897      1
  7898  7897  7898      1
  7899  7897  7900      1
  7900  7897  7901      1
  7901  7898  7899      1
  7902  7898  7902      1
  7903  7898  7903      1
  7904  7899  7904      1
  7905  7904  7905      1
  7906  7904  7907      1
  7907  7904  7908      1
  7908  7905  7906      1
  7909  7905  7909      1
  7910  7905  7910      1
  7911  7906  7911      1
  7912  7911  7912      1
  7913  7911  7914      1
  7914  7911  7915      1
  7915  7912  7913      1
  7916  7912  7916      1
  7917  7912  7917      1
  7918  7913  7918      1
  7919  7918  7919      1
  7920  7918  7921      1
  7921  7918  7922      1
  7922  7919  7920      1
  7923  7919  7923      1
  7924  7919  7924      1
  7925  7920  7925      1
  7926  7925  7926      1
  7927  7925  7928      1
  7928  7925  7929      1
  7929  7926  7927      1
  7930  7926  7930      1
  7931  7926  7931      1
  7932  7927  7932      1
  7933  7932  7933      1
  7934  7932  7935      1
  7935  7932  7936      1
  7936  7933  7934      1
  7937  7933  7937      1
  7938  7933  7938      1
  7939  7934  7939      1
  7940  7939  7940      1
  7941  7939  7942      1
  7942  7939  7943      1
  7943  7940  7941      1
  7944  7940  7944      1
  7945  7940  7945      1
  7946  7941  7946      1
  7947  7946  7947      1
  7948  7946  7949      1
  7949  7946  7950      1
  7950  7947  7948      1
  7951  7947  7951      1
  7952  7947  7952      1
  7953  7948  7953      1
  7954  7953  7954      1
  7955  7953  7956      1
  7956  7953  7957      1
  7957  7954  7955      1
  7958  7954  7958      1
  7959  7954  7959      1
  7960  7955  7960      1
  7961  7960  7961      1
  7962  7960  7963      1
  7963  7960  7964      1
  7964  7961  7962      1
  7965  7961  7965      1
  7966  7961  7966      1
  7967  7962  7967      1
  7968  7967  7968      1
  7969  7967  7970      1
  7970  7967  7971      1
  7971  7968  7969      1
  7972  7968  7972      1
  7973  7968  7973      1
  7974  7969  7974      1
  7975  7974  7975      1
  7976  7974  7977      1
  7977  7974  7978      1
  7978  7975  7976      1
  7979  7975  7979      1
  7980  7975  7980      1
  7981  7976  7981      1
  7982  7981  7982      1
  7983  7981  7984      1
  7984  7981  7985      1
  7985  7982  7983      1
  7986  7982  7986      1
  7987  7982  7987      1
  7988  7983  7988      1
  7989  7988  7989      1
  7990  7988  7991      1
  7991  7988  7992      1
  7992  7989  7990      1
  7993  7989  7993      1
  7994  7989  7994      1
  7995  7990  7995      1
  7996  7995  7996      1
  7997  7995  7998      1
  7998  7995  7999      1
  7999  7996  7997      1
  8000  7996  8000      1
  8001  7996  8001      1
  8002  7997  8002      1
  8003  8002  8003      1
  8004  8002  8005      1
  8005  8002  8006      1
  8006  8003  8004      1
  8007  8003  8007      1
  8008  8003  8008      1
  8009  8004  8009      1
  8010  8009  8010      1
  8011  8009  8012      1
  8012  8009  8013      1
  8013  8010  8011      1
  8014  8010  8014      1
  8015  8010  8015      1
  8016  8011  8016      1
  8017  8016  8017      1
  8018  8016  8019      1
  8019  8016  8020      1
  8020  8017  8018      1
  8021  8017  8021      1
  8022  8017  8022      1
  8023  8018  8023      1
  8024  8023  8024      1
  8025  8023  8026      1
  8026  8023  8027      1
  8027  8024  8025      1
  8028  8024  8028      1
  8029  8024  8029      1
  8030  8025  8030      1
  8031  8030  8031      1
  8032  8030  8033      1
  8033  8030  8034      1
  8034  8031  8032      1
  8035  8031  8035      1
  8036  8031  8036      1
  8037  8032  8037      1
  8038  8037  8038      1
  8039  8037  8040      1
  8040  8037  8041      1
  8041  8038  8039      1
  8042  8038  8042      1
  8043  8038  8043      1
  8044  8039  8044      1
  8045  8044  8045      1
  8046  8044  8047      1
  8047  8044  8048      1
  8048  8045  8046      1
  8049  8045  8049      1
  8050  8045  8050      1
  8051  8046  8051      1
  8052  8051  8052      1
  8053  8051  8054      1
  8054  8051  8055      1
  8055  8052  8053      1
  8056  8052  8056      1
  8057  8052  8057      1
  8058  8053  8058      1
  8059  8058  8059      1
  8060  8058  8061      1
  8061  8058  8062      1
  8062  8059  8060      1
  8063  8059  8063      1
  8064  8059  8064      1
  8065  8060  8065      1
  8066  8065  8066      1
  8067  8065  8068      1
  8068  8065  8069      1
  8069  8066  8067      1
  8070  8066  8070      1
  8071  8066  8071      1
  8072  8067  8072      1
  8073  8072  8073      1
  8074  8072  8075      1
  8075  8072  8076      1
  8076  8073  8074      1
  8077  8073  8077      1
  8078  8073  8078      1
  8079  8074  8079      1
  8080  8079  8080      1
  8081  8079  8082      1
  8082  8079  8083      1
  8083  8080  8081      1
  8084  8080  8084      1
  8085  8080  8085      1
  8086  8081  8086      1
  8087  8086  8087      1
  8088  8086  8089      1
  8089  8086  8090      1
  8090  8087  8088      1
  8091  8087  8091      1
  8092  8087  8092      1
  8093  8088  8093      1
  8094  8093  8094      1
  8095  8093  8096      1
  8096  8093  8097      1
  8097  8094  8095      1
  8098  8094  8098      1
  8099  8094  8099      1
  8100  8095  8100      1
  8101  8100  8101      1
  8102  8100  8103      1
  8103  8100  8104      1
  8104  8101  8102      1
  8105  8101  8105      1
  8106  8101  8106      1
  8107  8102  8107      1
  8108  8107  8108      1
  8109  8107  8110      1
  8110  8107  8111      1
  8111  8108  8109      1
  8112  8108  8112      1
  8113  8108  8113      1
  8114  8109  8114      1
  8115  8114  8115      1
  8116  8114  8117      1
  8117  8114  8118      1
  8118  8115  8116      1
  8119  8115  8119      1
  8120  8115  8120      1
  8121  8116  8121      1
  8122  8121  8122      1
  8123  8121  8124      1
  8124  8121  8125      1
  8125  8122  8123      1
  8126  8122  8126      1
  8127  8122  8127      1
  8128  8123  8128      1
  8129  8128  8129      1
  8130  8128  8131      1
  8131  8128  8132      1
  8132  8129  8130      1
  8133  8129  8133      1
  8134  8129  8134      1
  8135  8130  8135      1
  8136  8135  8136      1
  8137  8135  8138      1
  8138  8135  8139      1
  8139  8136  8137      1
  8140  8136  8140      1
  8141  8136  8141      1
  8142  8137  8142      1
  8143  8142  8143      1
  8144  8142  8145      1
  8145  8142  8146      1
  8146  8143  8144      1
  8147  8143  8147      1
  8148  8143  8148      1
  8149  8144  8149      1
  8150  8149  8150      1
  8151  8149  8152      1
  8152  8149  8153      1
  8153  8150  8151      1
  8154  8150  8154      1
  8155  8150  8155      1
  8156  8151  8156      1
  8157  8156  8157      1
  8158  8156  8159      1
  8159  8156  8160      1
  8160  8157  8158      1
  8161  8157  8161      1
  8162  8157  8162      1
  8163  8158  8163      1
  8164  8163  8164      1
  8165  8163  8166      1
  8166  8163  8167      1
  8167  8164  8165      1
  8168  8164  8168      1
  8169  8164  8169      1
  8170  8165  8170      1
  8171  8170  8171      1
  8172  8170  8173      1
  8173  8170  8174      1
  8174  8171  8172      1
  8175  8171  8175      1
  8176  8171  8176      1
  8177  8172  8177      1
  8178  8177  8178      1
  8179  8177  8180      1
  8180  8177  8181      1
  8181  8178  8179      1
  8182  8178  8182      1
  8183  8178  8183      1
  8184  8179  8184      1
  8185  8184  8185      1
  8186  8184  8187      1
  8187  8184  8188      1
  8188  8185  8186      1
  8189  8185  8189      1
  8190  8185  8190      1
  8191  8186  8191      1
  8192  8191  8192      1
  8193  8191  8194      1
  8194  8191  8195      1
  8195  8192  8193      1
  8196  8192  8196      1
  8197  8192  8197      1
  8198  8193  8198      1
  8199  8198  8199      1
  8200  8198  8201      1
  8201  8198  8202      1
  8202  8199  8200      1
  8203  8199  8203      1
  8204  8199  8204      1
  8205  8200  8205      1
  8206  8205  8206      1
  8207  8205  8208      1
  8208  8205  8209      1
  8209  8206  8207      1
  8210  8206  8210      1
  8211  8206  8211      1
  8212  8207  8212      1
  8213  8212  8213      1
  8214  8212  8215      1
  8215  8212  8216      1
  8216  8213  8214      1
  8217  8213  8217      1
  8218  8213  8218      1
  8219  8214  8219      1
  8220  8219  8220      1
  8221  8219  8222      1
  8222  8219  8223      1
  8223  8220  8221      1
  8224  8220  8224      1
  8225  8220  8225      1
  8226  8221  8226      1
  8227  8226  8227      1
  8228  8226  8229      1
  8229  8226  8230      1
  8230  8227  8228      1
  8231  8227  8231      1
  8232  8227  8232      1
  8233  8228  8233      1
  8234  8233  8234      1
  8235  8233  8236      1
  8236  8233  8237      1
  8237  8234  8235      1
  8238  8234  8238      1
  8239  8234  8239      1
  8240  8235  8240      1
  8241  8240  8241      1
  8242  8240  8243      1
  8243  8240  8244      1
  8244  8241  8242      1
  8245  8241  8245      1
  8246  8241  8246      1
  8247  8242  8247      1
  8248  8247  8248      1
  8249  8247  8250      1
  8250  8247  8251      1
  8251  8248  8249      1
  8252  8248  8252      1
  8253  8248  8253      1
  8254  8249  8254      1
  8255  8254  8255      1
  8256  8254  8257      1
  8257  8254  8258      1
  8258  8255  8256      1
  8259  8255  8259      1
  8260  8255  8260      1
  8261  8256  8261      1
  8262  8261  8262      1
  8263  8261  8264      1
  8264  8261  8265      1
  8265  8262  8263      1
  8266  8262  8266      1
  8267  8262  8267      1
  8268  8263  8268      1
  8269  8268  8269      1
  8270  8268  8271      1
  8271  8268  8272      1
  8272  8269  8270      1
  8273  8269  8273      1
  8274  8269  8274      1
  8275  8270  8275      1
  8276  8275  8276      1
  8277  8275  8278      1
  8278  8275  8279      1
  8279  8276  8277      1
  8280  8276  8280      1
  8281  8276  8281      1
  8282  8277  8282      1
  8283  8282  8283      1
  8284  8282  8285      1
  8285  8282  8286      1
  8286  8283  8284      1
  8287  8283  8287      1
  8288  8283  8288      1
  8289  8284  8289      1
  8290  8289  8290      1
  8291  8289  8292      1
  8292  8289  8293      1
  8293  8290  8291      1
  8294  8290  8294      1
  8295  8290  8295      1
  8296  8291  8296      1
  8297  8296  8297      1
  8298  8296  8299      1
  8299  8296  8300      1
  8300  8297  8298      1
  8301  8297  8301      1
  8302  8297  8302      1
  8303  8298  8303      1
  8304  8303  8304      1
  8305  8303  8306      1
  8306  8303  8307      1
  8307  8304  8305      1
  8308  8304  8308      1
  8309  8304  8309      1
  8310  8305  8310      1
  8311  8310  8311      1
  8312  8310  8313      1
  8313  8310  8314      1
  8314  8311  8312      1
  8315  8311  8315      1
  8316  8311  8316      1
  8317  8312  8317      1
  8318  8317  8318      1
  8319  8317  8320      1
  8320  8317  8321      1
  8321  8318  8319      1
  8322  8318  8322      1
  8323  8318  8323      1
  8324  8319  8324      1
  8325  8324  8325      1
  8326  8324  8327      1
  8327  8324  8328      1
  8328  8325  8326      1
  8329  8325  8329      1
  8330  8325  8330      1
  8331  8326  8331      1
  8332  8331  8332      1
  8333  8331  8334      1
  8334  8331  8335      1
  8335  8332  8333      1
  8336  8332  8336      1
  8337  8332  8337      1
  8338  8333  8338      1
  8339  8338  8339      1
  8340  8338  8341      1
  8341  8338  8342      1
  8342  8339  8340      1
  8343  8339  8343      1
  8344  8339  8344      1
  8345  8340  8345      1
  8346  8345  8346      1
  8347  8345  8348      1
  8348  8345  8349      1
  8349  8346  8347      1
  8350  8346  8350      1
  8351  8346  8351      1
  8352  8347  8352      1
  8353  8352  8353      1
  8354  8352  8355      1
  8355  8352  8356      1
  8356  8353  8354      1
  8357  8353  8357      1
  8358  8353  8358      1
  8359  8354  8359      1
  8360  8359  8360      1
  8361  8359  8362      1
  8362  8359  8363      1
  8363  8360  8361      1
  8364  8360  8364      1
  8365  8360  8365      1
  8366  8361  8366      1
  8367  8366  8367      1
  8368  8366  8369      1
  8369  8366  8370      1
  8370  8367  8368      1
  8371  8367  8371      1
  8372  8367  8372      1
  8373  8368  8373      1
  8374  8373  8374      1
  8375  8373  8376      1
  8376  8373  8377      1
  8377  8374  8375      1
  8378  8374  8378      1
  8379  8374  8379      1
  8380  8375  8380      1
  8381  8380  8381      1
  8382  8380  8383      1
  8383  8380  8384      1
  8384  8381  8382      1
  8385  8381  8385      1
  8386  8381  8386      1
  8387  8382  8387      1
  8388  8387  8388      1
  8389  8387  8390      1
  8390  8387  8391      1
  8391  8388  8389      1
  8392  8388  8392      1
  8393  8388  8393      1
  8394  8389  8394      1
  8395  8394  8395      1
  8396  8394  8397      1
  8397  8394  8398      1
  8398  8395  8396      1
  8399  8395  8399      1
  8400  8395  8400      1
  8401  8396  8401      1
  8402  8401  8402      1
  8403  8401  8404      1
  8404  8401  8405      1
  8405  8402  8403      1
  8406  8402  8406      1
  8407  8402  8407      1
  8408  8403  8408      1
  8409  8408  8409      1
  8410  8408  8411      1
  8411  8408  8412      1
  8412  8409  8410      1
  8413  8409  8413      1
  8414  8409  8414      1
  8415  8410  8415      1
  8416  8415  8416      1
  8417  8415  8418      1
  8418  8415  8419      1
  8419  8416  8417      1
  8420  8416  8420      1
  8421  8416  8421      1
  8422  8417  8422      1
  8423  8422  8423      1
  8424  8422  8425      1
  8425  8422  8426      1
  8426  8423  8424      1
  8427  8423  8427      1
  8428  8423  8428      1
  8429  8424  8429      1
  8430  8429  8430      1
  8431  8429  8432      1
  8432  8429  8433      1
  8433  8430  8431      1
  8434  8430  8434      1
  8435  8430  8435      1
  8436  8431  8436      1
  8437  8436  8437      1
  8438  8436  8439      1
  8439  8436  8440      1
  8440  8437  8438      1
  8441  8437  8441      1
  8442  8437  8442      1
  8443  8438  8443      1
  8444  8443  8444      1
  8445  8443  8446      1
  8446  8443  8447      1
  8447  8444  8445      1
  8448  8444  8448      1
  8449  8444  8449      1
  8450  8445  8450      1
  8451  8450  8451      1
  8452  8450  8453      1
  8453  8450  8454      1
  8454  8451  8452      1
  8455  8451  8455      1
  8456  8451  8456      1
  8457  8452  8457      1
  8458  8457  8458      1
  8459  8457  8460      1
  8460  8457  8461      1
  8461  8458  8459      1
  8462  8458  8462      1
  8463  8458  8463      1
  8464  8459  8464      1
  8465  8464  8465      1
  8466  8464  8467      1
  8467  8464  8468      1
  8468  8465  8466      1
  8469  8465  8469      1
  8470  8465  8470      1
  8471  8466  8471      1
  8472  8471  8472      1
  8473  8471  8474      1
  8474  8471  8475      1
  8475  8472  8473      1
  8476  8472  8476      1
  8477  8472  8477      1
  8478  8473  8478      1
  8479  8478  8479      1
  8480  8478  8481      1
  8481  8478  8482      1
  8482  8479  8480      1
  8483  8479  8483      1
  8484  8479  8484      1
  8485  8480  8485      1
  8486  8485  8486      1
  8487  8485  8488      1
  8488  8485  8489      1
  8489  8486  8487      1
  8490  8486  8490      1
  8491  8486  8491      1
  8492  8487  8492      1
  8493  8492  8493      1
  8494  8492  8495      1
  8495  8492  8496      1
  8496  8493  8494      1
  8497  8493  8497      1
  8498  8493  8498      1
  8499  8494  8499      1
  8500  8499  8500      1
  8501  8499  8502      1
  8502  8499  8503      1
  8503  8500  8501      1
  8504  8500  8504      1
  8505  8500  8505      1
  8506  8501  8506      1
  8507  8506  8507      1
  8508  8506  8509      1
  8509  8506  8510      1
  8510  8507  8508      1
  8511  8507  8511      1
  8512  8507  8512      1
  8513  8508  8513      1
  8514  8513  8514      1
  8515  8513  8516      1
  8516  8513  8517      1
  8517  8514  8515      1
  8518  8514  8518      1
  8519  8514  8519      1
  8520  8515  8520      1
  8521  8520  8521      1
  8522  8520  8523      1
  8523  8520  8524      1
  8524  8521  8522      1
  8525  8521  8525      1
  8526  8521  8526      1
  8527  8522  8527      1
  8528  8527  8528      1
  8529  8527  8530      1
  8530  8527  8531      1
  8531  8528  8529      1
  8532  8528  8532      1
  8533  8528  8533      1
  8534  8529  8534      1
  8535  8534  8535      1
  8536  8534  8537      1
  8537  8534  8538      1
  8538  8535  8536      1
  8539  8535  8539      1
  8540  8535  8540      1
  8541  8536  8541      1
  8542  8541  8542      1
  8543  8541  8544      1
  8544  8541  8545      1
  8545  8542  8543      1
  8546  8542  8546      1
  8547  8542  8547      1
  8548  8543  8548      1
  8549  8548  8549      1
  8550  8548  8551      1
  8551  8548  8552      1
  8552  8549  8550      1
  8553  8549  8553      1
  8554  8549  8554      1
  8555  8550  8555      1
  8556  8555  8556      1
  8557  8555  8558      1
  8558  8555  8559      1
  8559  8556  8557      1
  8560  8556  8560      1
  8561  8556  8561      1
  8562  8557  8562      1
  8563  8562  8563      1
  8564  8562  8565      1
  8565  8562  8566      1
  8566  8563  8564      1
  8567  8563  8567      1
  8568  8563  8568      1
  8569  8564  8569      1
  8570  8569  8570      1
  8571  8569  8572      1
  8572  8569  8573      1
  8573  8570  8571      1
  8574  8570  8574      1
  8575  8570  8575      1
  8576  8571  8576      1
  8577  8576  8577      1
  8578  8576  8579      1
  8579  8576  8580      1
  8580  8577  8578      1
  8581  8577  8581      1
  8582  8577  8582      1
  8583  8578  8583      1
  8584  8583  8584      1
  8585  8583  8586      1
  8586  8583  8587      1
  8587  8584  8585      1
  8588  8584  8588      1
  8589  8584  8589      1
  8590  8585  8590      1
  8591  8590  8591      1
  8592  8590  8593      1
  8593  8590  8594      1
  8594  8591  8592      1
  8595  8591  8595      1
  8596  8591  8596      1
  8597  8592  8597      1
  8598  8597  8598      1
  8599  8597  8600      1
  8600  8597  8601      1
  8601  8598  8599      1
  8602  8598  8602      1
  8603  8598  8603      1
  8604  8599  8604      1
  8605  8604  8605      1
  8606  8604  8607      1
  8607  8604  8608      1
  8608  8605  8606      1
  8609  8605  8609      1
  8610  8605  8610      1
  8611  8606  8611      1
  8612  8611  8612      1
  8613  8611  8614      1
  8614  8611  8615      1
  8615  8612  8613      1
  8616  8612  8616      1
  8617  8612  8617      1
  8618  8613  8618      1
  8619  8618  8619      1
  8620  8618  8621      1
  8621  8618  8622      1
  8622  8619  8620      1
  8623  8619  8623      1
  8624  8619  8624      1
  8625  8620  8625      1
  8626  8625  8626      1
  8627  8625  8628      1
  8628  8625  8629      1
  8629  8626  8627      1
  8630  8626  8630      1
  8631  8626  8631      1
  8632  8627  8632      1
  8633  8632  8633      1
  8634  8632  8635      1
  8635  8632  8636      1
  8636  8633  8634      1
  8637  8633  8637      1
  8638  8633  8638      1
  8639  8634  8639      1
  8640  8639  8640      1
  8641  8639  8642      1
  8642  8639  8643      1
  8643  8640  8641      1
  8644  8640  8644      1
  8645  8640  8645      1
  8646  8641  8646      1
  8647  8646  8647      1
  8648  8646  8649      1
  8649  8646  8650      1
  8650  8647  8648      1
  8651  8647  8651      1
  8652  8647  8652      1
  8653  8648  8653      1
  8654  8653  8654      1
  8655  8653  8656      1
  8656  8653  8657      1
  8657  8654  8655      1
  8658  8654  8658      1
  8659  8654  8659      1
  8660  8655  8660      1
  8661  8660  8661      1
  8662  8660  8663      1
  8663  8660  8664      1
  8664  8661  8662      1
  8665  8661  8665      1
  8666  8661  8666      1
  8667  8662  8667      1
  8668  8667  8668      1
  8669  8667  8670      1
  8670  8667  8671      1
  8671  8668  8669      1
  8672  8668  8672      1
  8673  8668  8673      1
  8674  8669  8674      1
  8675  8674  8675      1
  8676  8674  8677      1
  8677  8674  8678      1
  8678  8675  8676      1
  8679  8675  8679      1
  8680  8675  8680      1
  8681  8676  8681      1
  8682  8681  8682      1
  8683  8681  8684      1
  8684  8681  8685      1
  8685  8682  8683      1
  8686  8682  8686      1
  8687  8682  8687      1
  8688  8683  8688      1
  8689  8688  8689      1
  8690  8688  8691      1
  8691  8688  8692      1
  8692  8689  8690      1
  8693  8689  8693      1
  8694  8689  8694      1
  8695  8690  8695      1
  8696  8695  8696      1
  8697  8695  8698      1
  8698  8695  8699      1
  8699  8696  8697      1
  8700  8696  8700      1
  8701  8696  8701      1
  8702  8697  8702      1
  8703  8702  8703      1
  8704  8702  8705      1
  8705  8702  8706      1
  8706  8703  8704      1
  8707  8703  8707      1
  8708  8703  8708      1
  8709  8704  8709      1
  8710  8709  8710      1
  8711  8709  8712      1
  8712  8709  8713      1
  8713  8710  8711      1
  8714  8710  8714      1
  8715  8710  8715      1
  8716  8711  8716      1
  8717  8716  8717      1
  8718  8716  8719      1
  8719  8716  8720      1
  8720  8717  8718      1
  8721  8717  8721      1
  8722  8717  8722      1
  8723  8718  8723      1
  8724  8723  8724      1
  8725  8723  8726      1
  8726  8723  8727      1
  8727  8724  8725      1
  8728  8724  8728      1
  8729  8724  8729      1
  8730  8725  8730      1
  8731  8730  8731      1
  8732  8730  8733      1
  8733  8730  8734      1
  8734  8731  8732      1
  8735  8731  8735      1
  8736  8731  8736      1
  8737  8732  8737      1
  8738  8737  8738      1
  8739  8737  8740      1
  8740  8737  8741      1
  8741  8738  8739      1
  8742  8738  8742      1
  8743  8738  8743      1
  8744  8739  8744      1
  8745  8744  8745      1
  8746  8744  8747      1
  8747  8744  8748      1
  8748  8745  8746      1
  8749  8745  8749      1
  8750  8745  8750      1
  8751  8746  8751      1
  8752  8751  8752      1
  8753  8751  8754      1
  8754  8751  8755      1
  8755  8752  8753      1
  8756  8752  8756      1
  8757  8752  8757      1
  8758  8753  8758      1
  8759  8758  8759      1
  8760  8758  8761      1
  8761  8758  8762      1
  8762  8759  8760      1
  8763  8759  8763      1
  8764  8759  8764      1
  8765  8760  8765      1
  8766  8765  8766      1
  8767  8765  8768      1
  8768  8765  8769      1
  8769  8766  8767      1
  8770  8766  8770      1
  8771  8766  8771      1
  8772  8767  8772      1
  8773  8772  8773      1
  8774  8772  8775      1
  8775  8772  8776      1
  8776  8773  8774      1
  8777  8773  8777      1
  8778  8773  8778      1
  8779  8774  8779      1
  8780  8779  8780      1
  8781  8779  8782      1
  8782  8779  8783      1
  8783  8780  8781      1
  8784  8780  8784      1
  8785  8780  8785      1
  8786  8781  8786      1
  8787  8786  8787      1
  8788  8786  8789      1
  8789  8786  8790      1
  8790  8787  8788      1
  8791  8787  8791      1
  8792  8787  8792      1
  8793  8788  8793      1
  8794  8793  8794      1
  8795  8793  8796      1
  8796  8793  8797      1
  8797  8794  8795      1
  8798  8794  8798      1
  8799  8794  8799      1
  8800  8795  8800      1
  8801  8800  8801      1
  8802  8800  8803      1
  8803  8800  8804      1
  8804  8801  8802      1
  8805  8801  8805      1
  8806  8801  8806      1
  8807  8802  8807      1
  8808  8807  8808      1
  8809  8807  8810      1
  8810  8807  8811      1
  8811  8808  8809      1
  8812  8808  8812      1
  8813  8808  8813      1
  8814  8809  8814      1
  8815  8814  8815      1
  8816  8814  8817      1
  8817  8814  8818      1
  8818  8815  8816      1
  8819  8815  8819      1
  8820  8815  8820      1
  8821  8816  8821      1
  8822  8821  8822      1
  8823  8821  8824      1
  8824  8821  8825      1
  8825  8822  8823      1
  8826  8822  8826      1
  8827  8822  8827      1
  8828  8823  8828      1
  8829  8828  8829      1
  8830  8828  8831      1
  8831  8828  8832      1
  8832  8829  8830      1
  8833  8829  8833      1
  8834  8829  8834      1
  8835  8830  8835      1
  8836  8835  8836      1
  8837  8835  8838      1
  8838  8835  8839      1
  8839  8836  8837      1
  8840  8836  8840      1
  8841  8836  8841      1
  8842  8837  8842      1
  8843  8842  8843      1
  8844  8842  8845      1
  8845  8842  8846      1
  8846  8843  8844      1
  8847  8843  8847      1
  8848  8843  8848      1
  8849  8844  8849      1
  8850  8849  8850      1
  8851  8849  8852      1
  8852  8849  8853      1
  8853  8850  8851      1
  8854  8850  8854      1
  8855  8850  8855      1
  8856  8851  8856      1
  8857  8856  8857      1
  8858  8856  8859      1
  8859  8856  8860      1
  8860  8857  8858      1
  8861  8857  8861      1
  8862  8857  8862      1
  8863  8858  8863      1
  8864  8863  8864      1
  8865  8863  8866      1
  8866  8863  8867      1
  8867  8864  8865      1
  8868  8864  8868      1
  8869  8864  8869      1
  8870  8865  8870      1
  8871  8870  8871      1
  8872  8870  8873      1
  8873  8870  8874      1
  8874  8871  8872      1
  8875  8871  8875      1
  8876  8871  8876      1
  8877  8872  8877      1
  8878  8877  8878      1
  8879  8877  8880      1
  8880  8877  8881      1
  8881  8878  8879      1
  8882  8878  8882      1
  8883  8878  8883      1
  8884  8879  8884      1
  8885  8884  8885      1
  8886  8884  8887      1
  8887  8884  8888      1
  8888  8885  8886      1
  8889  8885  8889      1
  8890  8885  8890      1
  8891  8886  8891      1
  8892  8891  8892      1
  8893  8891  8894      1
  8894  8891  8895      1
  8895  8892  8893      1
  8896  8892  8896      1
  8897  8892  8897      1
  8898  8893  8898      1
  8899  8898  8899      1
  8900  8898  8901      1
  8901  8898  8902      1
  8902  8899  8900      1
  8903  8899  8903      1
  8904  8899  8904      1
  8905  8900  8905      1
  8906  8905  8906      1
  8907  8905  8908      1
  8908  8905  8909      1
  8909  8906  8907      1
  8910  8906  8910      1
  8911  8906  8911      1
  8912  8907  8912      1
  8913  8912  8913      1
  8914  8912  8915      1
  8915  8912  8916      1
  8916  8913  8914      1
  8917  8913  8917      1
  8918  8913  8918      1
  8919  8914  8919      1
  8920  8919  8920      1
  8921  8919  8922      1
  8922  8919  8923      1
  8923  8920  8921      1
  8924  8920  8924      1
  8925  8920  8925      1
  8926  8921  8926      1
  8927  8926  8927      1
  8928  8926  8929      1
  8929  8926  8930      1
  8930  8927  8928      1
  8931  8927  8931      1
  8932  8927  8932      1
  8933  8928  8933      1
  8934  8933  8934      1
  8935  8933  8936      1
  8936  8933  8937      1
  8937  8934  8935      1
  8938  8934  8938      1
  8939  8934  8939      1
  8940  8935  8940      1
  8941  8940  8941      1
  8942  8940  8943      1
  8943  8940  8944      1
  8944  8941  8942      1
  8945  8941  8945      1
  8946  8941  8946      1
  8947  8942  8947      1
  8948  8947  8948      1
  8949  8947  8950      1
  8950  8947  8951      1
  8951  8948  8949      1
  8952  8948  8952      1
  8953  8948  8953      1
  8954  8949  8954      1
  8955  8954  8955      1
  8956  8954  8957      1
  8957  8954  8958      1
  8958  8955  8956      1
  8959  8955  8959      1
  8960  8955  8960      1
  8961  8956  8961      1
  8962  8961  8962      1
  8963  8961  8964      1
  8964  8961  8965      1
  8965  8962  8963      1
  8966  8962  8966      1
  8967  8962  8967      1
  8968  8963  8968      1
  8969  8968  8969      1
  8970  8968  8971      1
  8971  8968  8972      1
  8972  8969  8970      1
  8973  8969  8973      1
  8974  8969  8974      1
  8975  8970  8975      1
  8976  8975  8976      1
  8977  8975  8978      1
  8978  8975  8979      1
  8979  8976  8977      1
  8980  8976  8980      1
  8981  8976  8981      1
  8982  8977  8982      1
  8983  8982  8983      1
  8984  8982  8985      1
  8985  8982  8986      1
  8986  8983  8984      1
  8987  8983  8987      1
  8988  8983  8988      1
  8989  8984  8989      1
  8990  8989  8990      1
  8991  8989  8992      1
  8992  8989  8993      1
  8993  8990  8991      1
  8994  8990  8994      1
  8995  8990  8995      1
  8996  8991  8996      1
  8997  8996  8997      1
  8998  8996  8999      1
  8999  8996  9000      1
  9000  8997  8998      1
  9001  8997  9001      1
  9002  8997  9002      1
  9003  8998  9003      1
  9004  9003  9004      1
  9005  9003  9006      1
  9006  9003  9007      1
  9007  9004  9005      1
  9008  9004  9008      1
  9009  9004  9009      1
  9010  9005  9010      1
  9011  9010  9011      1
  9012  9010  9013      1
  9013  9010  9014      1
  9014  9011  9012      1
  9015  9011  9015      1
  9016  9011  9016      1
  9017  9012  9017      1
  9018  9017  9018      1
  9019  9017  9020      1
  9020  9017  9021      1
  9021  9018  9019      1
  9022  9018  9022      1
  9023  9018  9023      1
  9024  9019  9024      1
  9025  9024  9025      1
  9026  9024  9027      1
  9027  9024  9028      1
  9028  9025  9026      1
  9029  9025  9029      1
  9030  9025  9030      1
  9031  9026  9031      1
  9032  9031  9032      1
  9033  9031  9034      1
  9034  9031  9035      1
  9035  9032  9033      1
  9036  9032  9036      1
  9037  9032  9037      1
  9038  9033  9038      1
  9039  9038  9039      1
  9040  9038  9041      1
  9041  9038  9042      1
  9042  9039  9040      1
  9043  9039  9043      1
  9044  9039  9044      1
  9045  9040  9045      1
  9046  9045  9046      1
  9047  9045  9048      1
  9048  9045  9049      1
  9049  9046  9047      1
  9050  9046  9050      1
  9051  9046  9051      1
  9052  9047  9052      1
  9053  9052  9053      1
  9054  9052  9055      1
  9055  9052  9056      1
  9056  9053  9054      1
  9057  9053  9057      1
  9058  9053  9058      1
  9059  9054  9059      1
  9060  9059  9060      1
  9061  9059  9062      1
  9062  9059  9063      1
  9063  9060  9061      1
  9064  9060  9064      1
  9065  9060  9065      1
  9066  9061  9066      1
  9067  9066  9067      1
  9068  9066  9069      1
  9069  9066  9070      1
  9070  9067  9068      1
  9071  9067  9071      1
  9072  9067  9072      1
  9073  9068  9073      1
  9074  9073  9074      1
  9075  9073  9076      1
  9076  9073  9077      1
  9077  9074  9075      1
  9078  9074  9078      1
  9079  9074  9079      1
  9080  9075  9080      1
  9081  9080  9081      1
  9082  9080  9083      1
  9083  9080  9084      1
  9084  9081  9082      1
  9085  9081  9085      1
  9086  9081  9086      1
  9087  9082  9087      1
  9088  9087  9088      1
  9089  9087  9090      1
  9090  9087  9091      1
  9091  9088  9089      1
  9092  9088  9092      1
  9093  9088  9093      1
  9094  9089  9094      1
  9095  9094  9095      1
  9096  9094  9097      1
  9097  9094  9098      1
  9098  9095  9096      1
  9099  9095  9099      1
  9100  9095  9100      1
  9101  9096  9101      1
  9102  9101  9102      1
  9103  9101  9104      1
  9104  9101  9105      1
  9105  9102  9103      1
  9106  9102  9106      1
  9107  9102  9107      1
  9108  9103  9108      1
  9109  9108  9109      1
  9110  9108  9111      1
  9111  9108  9112      1
  9112  9109  9110      1
  9113  9109  9113      1
  9114  9109  9114      1
  9115  9110  9115      1
  9116  9115  9116      1
  9117  9115  9118      1
  9118  9115  9119      1
  9119  9116  9117      1
  9120  9116  9120      1
  9121  9116  9121      1
  9122  9117  9122      1
  9123  9122  9123      1
  9124  9122  9125      1
  9125  9122  9126      1
  9126  9123  9124      1
  9127  9123  9127      1
  9128  9123  9128      1
  9129  9124  9129      1
  9130  9129  9130      1
  9131  9129  9132      1
  9132  9129  9133      1
  9133  9130  9131      1
  9134  9130  9134      1
  9135  9130  9135      1
  9136  9131  9136      1
  9137  9136  9137      1
  9138  9136  9139      1
  9139  9136  9140      1
  9140  9137  9138      1
  9141  9137  9141      1
  9142  9137  9142      1
  9143  9138  9143      1
  9144  9143  9144      1
  9145  9143  9146      1
  9146  9143  9147      1
  9147  9144  9145      1
  9148  9144  9148      1
  9149  9144  9149      1
  9150  9145  9150      1
  9151  9150  9151      1
  9152  9150  9153      1
  9153  9150  9154      1
  9154  9151  9152      1
  9155  9151  9155      1
  9156  9151  9156      1
  9157  9152  9157      1
  9158  9157  9158      1
  9159  9157  9160      1
  9160  9157  9161      1
  9161  9158  9159      1
  9162  9158  9162      1
  9163  9158  9163      1
  9164  9159  9164      1
  9165  9164  9165      1
  9166  9164  9167      1
  9167  9164  9168      1
  9168  9165  9166      1
  9169  9165  9169      1
  9170  9165  9170      1
  9171  9166  9171      1
  9172  9171  9172      1
  9173  9171  9174      1
  9174  9171  9175      1
  9175  9172  9173      1
  9176  9172  9176      1
  9177  9172  9177      1
  9178  9173  9178      1
  9179  9178  9179      1
  9180  9178  9181      1
  9181  9178  9182      1
  9182  9179  9180      1
  9183  9179  9183      1
  9184  9179  9184      1
  9185  9180  9185      1
  9186  9185  9186      1
  9187  9185  9188      1
  9188  9185  9189      1
  9189  9186  9187      1
  9190  9186  9190      1
  9191  9186  9191      1
  9192  9187  9192      1
  9193  9192  9193      1
  9194  9192  9195      1
  9195  9192  9196      1
  9196  9193  9194      1
  9197  9193  9197      1
  9198  9193  9198      1
  9199  9194  9199      1
  9200  9199  9200      1
  9201  9199  9202      1
  9202  9199  9203      1
  9203  9200  9201      1
  9204  9200  9204      1
  9205  9200  9205      1
  9206  9201  9206      1
  9207  9206  9207      1
  9208  9206  9209      1
  9209  9206  9210      1
  9210  9207  9208      1
  9211  9207  9211      1
  9212  9207  9212      1
  9213  9208  9213      1
  9214  9213  9214      1
  9215  9213  9216      1
  9216  9213  9217      1
  9217  9214  9215      1
  9218  9214  9218      1
  9219  9214  9219      1
  9220  9215  9220      1
  9221  9220  9221      1
  9222  9220  9223      1
  9223  9220  9224      1
  9224  9221  9222      1
  9225  9221  9225      1
  9226  9221  9226      1
  9227  9222  9227      1
  9228  9227  9228      1
  9229  9227  9230      1
  9230  9227  9231      1
  9231  9228  9229      1
  9232  9228  9232      1
  9233  9228  9233      1
  9234  9229  9234      1
  9235  9234  9235      1
  9236  9234  9237      1
  9237  9234  9238      1
  9238  9235  9236      1
  9239  9235  9239      1
  9240  9235  9240      1
  9241  9236  9241      1
  9242  9241  9242      1
  9243  9241  9244      1
  9244  9241  9245      1
  9245  9242  9243      1
  9246  9242  9246      1
  9247  9242  9247      1
  9248  9243  9248      1
  9249  9248  9249      1
  9250  9248  9251      1
  9251  9248  9252      1
  9252  9249  9250      1
  9253  9249  9253      1
  9254  9249  9254      1
  9255  9250  9255      1
  9256  9255  9256      1
  9257  9255  9258      1
  9258  9255  9259      1
  9259  9256  9257      1
  9260  9256  9260      1
  9261  9256  9261      1
  9262  9257  9262      1
  9263  9262  9263      1
  9264  9262  9265      1
  9265  9262  9266      1
  9266  9263  9264      1
  9267  9263  9267      1
  9268  9263  9268      1
  9269  9264  9269      1
  9270  9269  9270      1
  9271  9269  9272      1
  9272  9269  9273      1
  9273  9270  9271      1
  9274  9270  9274      1
  9275  9270  9275      1
  9276  9271  9276      1
  9277  9276  9277      1
  9278  9276  9279      1
  9279  9276  9280      1
  9280  9277  9278      1
  9281  9277  9281      1
  9282  9277  9282      1
  9283  9278  9283      1
  9284  9283  9284      1
  9285  9283  9286      1
  9286  9283  9287      1
  9287  9284  9285      1
  9288  9284  9288      1
  9289  9284  9289      1
  9290  9285  9290      1
  9291  9290  9291      1
  9292  9290  9293      1
  9293  9290  9294      1
  9294  9291  9292      1
  9295  9291  9295      1
  9296  9291  9296      1
  9297  9292  9297      1
  9298  9297  9298      1
  9299  9297  9300      1
  9300  9297  9301      1
  9301  9298  9299      1
  9302  9298  9302      1
  9303  9298  9303      1
  9304  9299  9304      1
  9305  9304  9305      1
  9306  9304  9307      1
  9307  9304  9308      1
  9308  9305  9306      1
  9309  9305  9309      1
  9310  9305  9310      1
  9311  9306  9311      1
  9312  9311  9312      1
  9313  9311  9314      1
  9314  9311  9315      1
  9315  9312  9313      1
  9316  9312  9316      1
  9317  9312  9317      1
  9318  9313  9318      1
  9319  9318  9319      1
  9320  9318  9321      1
  9321  9318  9322      1
  9322  9319  9320      1
  9323  9319  9323      1
  9324  9319  9324      1
  9325  9320  9325      1
  9326  9325  9326      1
  9327  9325  9328      1
  9328  9325  9329      1
  9329  9326  9327      1
  9330  9326  9330      1
  9331  9326  9331      1
  9332  9327  9332      1
  9333  9332  9333      1
  9334  9332  9335      1
  9335  9332  9336      1
  9336  9333  9334      1
  9337  9333  9337      1
  9338  9333  9338      1
  9339  9334  9339      1
  9340  9339  9340      1
  9341  9339  9342      1
  9342  9339  9343      1
  9343  9340  9341      1
  9344  9340  9344      1
  9345  9340  9345      1
  9346  9341  9346      1
  9347  9346  9347      1
  9348  9346  9349      1
  9349  9346  9350      1
  9350  9347  9348      1
  9351  9347  9351      1
  9352  9347  9352      1
  9353  9348  9353      1
  9354  9353  9354      1
  9355  9353  9356      1
  9356  9353  9357      1
  9357  9354  9355      1
  9358  9354  9358      1
  9359  9354  9359      1
  9360  9355  9360      1
  9361  9360  9361      1
  9362  9360  9363      1
  9363  9360  9364      1
  9364  9361  9362      1
  9365  9361  9365      1
  9366  9361  9366      1
  9367  9362  9367      1
  9368  9367  9368      1
  9369  9367  9370      1
  9370  9367  9371      1
  9371  9368  9369      1
  9372  9368  9372      1
  9373  9368  9373      1
  9374  9369  9374      1
  9375  9374  9375      1
  9376  9374  9377      1
  9377  9374  9378      1
  9378  9375  9376      1
  9379  9375  9379      1
  9380  9375  9380      1
  9381  9376  9381      1
  9382  9381  9382      1
  9383  9381  9384      1
  9384  9381  9385      1
  9385  9382  9383      1
  9386  9382  9386      1
  9387  9382  9387      1
  9388  9383  9388      1
  9389  9388  9389      1
  9390  9388  9391      1
  9391  9388  9392      1
  9392  9389  9390      1
  9393  9389  9393      1
  9394  9389  9394      1
  9395  9390  9395      1
  9396  9395  9396      1
  9397  9395  9398      1
  9398  9395  9399      1
  9399  9396  9397      1
  9400  9396  9400      1
  9401  9396  9401      1
  9402  9397  9402      1
  9403  9402  9403      1
  9404  9402  9405      1
  9405  9402  9406      1
  9406  9403  9404      1
  9407  9403  9407      1
  9408  9403  9408      1
  9409  9404  9409      1
  9410  9409  9410      1
  9411  9409  9412      1
  9412  9409  9413      1
  9413  9410  9411      1
  9414  9410  9414      1
  9415  9410  9415      1
  9416  9411  9416      1
  9417  9416  9417      1
  9418  9416  9419      1
  9419  9416  9420      1
  9420  9417  9418      1
  9421  9417  9421      1
  9422  9417  9422      1
  9423  9418  9423      1
  9424  9423  9424      1
  9425  9423  9426      1
  9426  9423  9427      1
  9427  9424  9425      1
  9428  9424  9428      1
  9429  9424  9429      1
  9430  9425  9430      1
  9431  9430  9431      1
  9432  9430  9433      1
  9433  9430  9434      1
  9434  9431  9432      1
  9435  9431  9435      1
  9436  9431  9436      1
  9437  9432  9437      1
  9438  9437  9438      1
  9439  9437  9440      1
  9440  9437  9441      1
  9441  9438  9439      1
  9442  9438  9442      1
  9443  9438  9443      1
  9444  9439  9444      1
  9445  9444  9445      1
  9446  9444  9447      1
  9447  9444  9448      1
  9448  9445  9446      1
  9449  9445  9449      1
  9450  9445  9450      1
  9451  9446  9451      1
  9452  9451  9452      1
  9453  9451  9454      1
  9454  9451  9455      1
  9455  9452  9453      1
  9456  9452  9456      1
  9457  9452  9457      1
  9458  9453  9458      1
  9459  9458  9459      1
  9460  9458  9461      1
  9461  9458  9462      1
  9462  9459  9460      1
  9463  9459  9463      1
  9464  9459  9464      1
  9465  9460  9465      1
  9466  9465  9466      1
  9467  9465  9468      1
  9468  9465  9469      1
  9469  9466  9467      1
  9470  9466  9470      1
  9471  9466  9471      1
  9472  9467  9472      1
  9473  9472  9473      1
  9474  9472  9475      1
  9475  9472  9476      1
  9476  9473  9474      1
  9477  9473  9477      1
  9478  9473  9478      1
  9479  9474  9479      1
  9480  9479  9480      1
  9481  9479  9482      1
  9482  9479  9483      1
  9483  9480  9481      1
  9484  9480  9484      1
  9485  9480  9485      1
  9486  9481  9486      1
  9487  9486  9487      1
  9488  9486  9489      1
  9489  9486  9490      1
  9490  9487  9488      1
  9491  9487  9491      1
  9492  9487  9492      1
  9493  9488  9493      1
  9494  9493  9494      1
  9495  9493  9496      1
  9496  9493  9497      1
  9497  9494  9495      1
  9498  9494  9498      1
  9499  9494  9499      1
  9500  9495  9500      1
  9501  9500  9501      1
  9502  9500  9503      1
  9503  9500  9504      1
  9504  9501  9502      1
  9505  9501  9505      1
  9506  9501  9506      1
  9507  9502  9507      1
  9508  9507  9508      1
  9509  9507  9510      1
  9510  9507  9511      1
  9511  9508  9509      1
  9512  9508  9512      1
  9513  9508  9513      1
  9514  9509  9514      1
  9515  9514  9515      1
  9516  9514  9517      1
  9517  9514  9518      1
  9518  9515  9516      1
  9519  9515  9519      1
  9520  9515  9520      1
  9521  9516  9521      1
  9522  9521  9522      1
  9523  9521  9524      1
  9524  9521  9525      1
  9525  9522  9523      1
  9526  9522  9526      1
  9527  9522  9527      1
  9528  9523  9528      1
  9529  9528  9529      1
  9530  9528  9531      1
  9531  9528  9532      1
  9532  9529  9530      1
  9533  9529  9533      1
  9534  9529  9534      1
  9535  9530  9535      1
  9536  9535  9536      1
  9537  9535  9538      1
  9538  9535  9539      1
  9539  9536  9537      1
  9540  9536  9540      1
  9541  9536  9541      1
  9542  9537  9542      1
  9543  9542  9543      1
  9544  9542  9545      1
  9545  9542  9546      1
  9546  9543  9544      1
  9547  9543  9547      1
  9548  9543  9548      1
  9549  9544  9549      1
  9550  9549  9550      1
  9551  9549  9552      1
  9552  9549  9553      1
  9553  9550  9551      1
  9554  9550  9554      1
  9555  9550  9555      1
  9556  9551  9556      1
  9557  9556  9557      1
  9558  9556  9559      1
  9559  9556  9560      1
  9560  9557  9558      1
  9561  9557  9561      1
  9562  9557  9562      1
  9563  9558  9563      1
  9564  9563  9564      1
  9565  9563  9566      1
  9566  9563  9567      1
  9567  9564  9565      1
  9568  9564  9568      1
  9569  9564  9569      1
  9570  9565  9570      1
  9571  9570  9571      1
  9572  9570  9573      1
  9573  9570  9574      1
  9574  9571  9572      1
  9575  9571  9575      1
  9576  9571  9576      1
  9577  9572  9577      1
  9578  9577  9578      1
  9579  9577  9580      1
  9580  9577  9581      1
  9581  9578  9579      1
  9582  9578  9582      1
  9583  9578  9583      1
  9584  9579  9584      1
  9585  9584  9585      1
  9586  9584  9587      1
  9587  9584  9588      1
  9588  9585  9586      1
  9589  9585  9589      1
  9590  9585  9590      1
  9591  9586  9591      1
  9592  9591  9592      1
  9593  9591  9594      1
  9594  9591  9595      1
  9595  9592  9593      1
  9596  9592  9596      1
  9597  9592  9597      1
  9598  9593  9598      1
  9599  9598  9599      1
  9600  9598  9601      1
  9601  9598  9602      1
  9602  9599  9600      1
  9603  9599  9603      1
  9604  9599  9604      1
  9605  9600  9605      1
  9606  9605  9606      1
  9607  9605  9608      1
  9608  9605  9609      1
  9609  9606  9607      1
  9610  9606  9610      1
  9611  9606  9611      1
  9612  9607  9612      1
  9613  9612  9613      1
  9614  9612  9615      1
  9615  9612  9616      1
  9616  9613  9614      1
  9617  9613  9617      1
  9618  9613  9618      1
  9619  9614  9619      1
  9620  9619  9620      1
  9621  9619  9622      1
  9622  9619  9623      1
  9623  9620  9621      1
  9624  9620  9624      1
  9625  9620  9625      1
  9626  9621  9626      1
  9627  9626  9627      1
  9628  9626  9629      1
  9629  9626  9630      1
  9630  9627  9628      1
  9631  9627  9631      1
  9632  9627  9632      1
  9633  9628  9633      1
  9634  9633  9634      1
  9635  9633  9636      1
  9636  9633  9637      1
  9637  9634  9635      1
  9638  9634  9638      1
  9639  9634  9639      1
  9640  9635  9640      1
  9641  9640  9641      1
  9642  9640  9643      1
  9643  9640  9644      1
  9644  9641  9642      1
  9645  9641  9645      1
  9646  9641  9646      1
  9647  9642  9647      1
  9648  9647  9648      1
  9649  9647  9650      1
  9650  9647  9651      1
  9651  9648  9649      1
  9652  9648  9652      1
  9653  9648  9653      1
  9654  9649  9654      1
  9655  9654  9655      1
  9656  9654  9657      1
  9657  9654  9658      1
  9658  9655  9656      1
  9659  9655  9659      1
  9660  9655  9660      1
  9661  9656  9661      1
  9662  9661  9662      1
  9663  9661  9664      1
  9664  9661  9665      1
  9665  9662  9663      1
  9666  9662  9666      1
  9667  9662  9667      1
  9668  9663  9668      1
  9669  9668  9669      1
  9670  9668  9671      1
  9671  9668  9672      1
  9672  9669  9670      1
  9673  9669  9673      1
  9674  9669  9674      1
  9675  9670  9675      1
  9676  9675  9676      1
  9677  9675  9678      1
  9678  9675  9679      1
  9679  9676  9677      1
  9680  9676  9680      1
  9681  9676  9681      1
  9682  9677  9682      1
  9683  9682  9683      1
  9684  9682  9685      1
  9685  9682  9686      1
  9686  9683  9684      1
  9687  9683  9687      1
  9688  9683  9688      1
  9689  9684  9689      1
  9690  9689  9690      1
  9691  9689  9692      1
  9692  9689  9693      1
  9693  9690  9691      1
  9694  9690  9694      1
  9695  9690  9695      1
  9696  9691  9696      1
  9697  9696  9697      1
  9698  9696  9699      1
  9699  9696  9700      1
  9700  9697  9698      1
  9701  9697  9701      1
  9702  9697  9702      1
  9703  9698  9703      1
  9704  9703  9704      1
  9705  9703  9706      1
  9706  9703  9707      1
  9707  9704  9705      1
  9708  9704  9708      1
  9709  9704  9709      1
  9710  9705  9710      1
  9711  9710  9711      1
  9712  9710  9713      1
  9713  9710  9714      1
  9714  9711  9712      1
  9715  9711  9715      1
  9716  9711  9716      1
  9717  9712  9717      1
  9718  9717  9718      1
  9719  9717  9720      1
  9720  9717  9721      1
  9721  9718  9719      1
  9722  9718  9722      1
  9723  9718  9723      1
  9724  9719  9724      1
  9725  9724  9725      1
  9726  9724  9727      1
  9727  9724  9728      1
  9728  9725  9726      1
  9729  9725  9729      1
  9730  9725  9730      1
  9731  9726  9731      1
  9732  9731  9732      1
  9733  9731  9734      1
  9734  9731  9735      1
  9735  9732  9733      1
  9736  9732  9736      1
  9737  9732  9737      1
  9738  9733  9738      1
  9739  9738  9739      1
  9740  9738  9741      1
  9741  9738  9742      1
  9742  9739  9740      1
  9743  9739  9743      1
  9744  9739  9744      1
  9745  9740  9745      1
  9746  9745  9746      1
  9747  9745  9748      1
  9748  9745  9749      1
  9749  9746  9747      1
  9750  9746  9750      1
  9751  9746  9751      1
  9752  9747  9752      1
  9753  9752  9753      1
  9754  9752  9755      1
  9755  9752  9756      1
  9756  9753  9754      1
  9757  9753  9757      1
  9758  9753  9758      1
  9759  9754  9759      1
  9760  9759  9760      1
  9761  9759  9762      1
  9762  9759  9763      1
  9763  9760  9761      1
  9764  9760  9764      1
  9765  9760  9765      1
  9766  9761  9766      1
  9767  9766  9767      1
  9768  9766  9769      1
  9769  9766  9770      1
  9770  9767  9768      1
  9771  9767  9771      1
  9772  9767  9772      1
  9773  9768  9773      1
  9774  9773  9774      1
  9775  9773  9776      1
  9776  9773  9777      1
  9777  9774  9775      1
  9778  9774  9778      1
  9779  9774  9779      1
  9780  9775  9780      1
  9781  9780  9781      1
  9782  9780  9783      1
  9783  9780  9784      1
  9784  9781  9782      1
  9785  9781  9785      1
  9786  9781  9786      1
  9787  9782  9787      1
  9788  9787  9788      1
  9789  9787  9790      1
  9790  9787  9791      1
  9791  9788  9789      1
  9792  9788  9792      1
  9793  9788  9793      1
  9794  9789  9794      1
  9795  9794  9795      1
  9796  9794  9797      1
  9797  9794  9798      1
  9798  9795  9796      1
  9799  9795  9799      1
  9800  9795  9800      1
  9801  9796  9801      1
  9802  9801  9802      1
  9803  9801  9804      1
  9804  9801  9805      1
  9805  9802  9803      1
  9806  9802  9806      1
  9807  9802  9807      1
  9808  9803  9808      1
  9809  9808  9809      1
  9810  9808  9811      1
  9811  9808  9812      1
  9812  9809  9810      1
  9813  9809  9813      1
  9814  9809  9814      1
  9815  9810  9815      1
  9816  9815  9816      1
  9817  9815  9818      1
  9818  9815  9819      1
  9819  9816  9817      1
  9820  9816  9820      1
  9821  9816  9821      1
  9822  9817  9822      1
  9823  9822  9823      1
  9824  9822  9825      1
  9825  9822  9826      1
  9826  9823  9824      1
  9827  9823  9827      1
  9828  9823  9828      1
  9829  9824  9829      1
  9830  9829  9830      1
  9831  9829  9832      1
  9832  9829  9833      1
  9833  9830  9831      1
  9834  9830  9834      1
  9835  9830  9835      1
  9836  9831  9836      1
  9837  9836  9837      1
  9838  9836  9839      1
  9839  9836  9840      1
  9840  9837  9838      1
  9841  9837  9841      1
  9842  9837  9842      1
  9843  9838  9843      1
  9844  9843  9844      1
  9845  9843  9846      1
  9846  9843  9847      1
  9847  9844  9845      1
  9848  9844  9848      1
  9849  9844  9849      1
  9850  9845  9850      1
  9851  9850  9851      1
  9852  9850  9853      1
  9853  9850  9854      1
  9854  9851  9852      1
  9855  9851  9855      1
  9856  9851  9856      1
  9857  9852  9857      1
  9858  9857  9858      1
  9859  9857  9860      1
  9860  9857  9861      1
  9861  9858  9859      1
  9862  9858  9862      1
  9863  9858  9863      1
  9864  9859  9864      1
  9865  9864  9865      1
  9866  9864  9867      1
  9867  9864  9868      1
  9868  9865  9866      1
  9869  9865  9869      1
  9870  9865  9870      1
  9871  9866  9871      1
  9872  9871  9872      1
  9873  9871  9874      1
  9874  9871  9875      1
  9875  9872  9873      1
  9876  9872  9876      1
  9877  9872  9877      1
  9878  9873  9878      1
  9879  9878  9879      1
  9880  9878  9881      1
  9881  9878  9882      1
  9882  9879  9880      1
  9883  9879  9883      1
  9884  9879  9884      1
  9885  9880  9885      1
  9886  9885  9886      1
  9887  9885  9888      1
  9888  9885  9889      1
  9889  9886  9887      1
  9890  9886  9890      1
  9891  9886  9891      1
  9892  9887  9892      1
  9893  9892  9893      1
  9894  9892  9895      1
  9895  9892  9896      1
  9896  9893  9894      1
  9897  9893  9897      1
  9898  9893  9898      1
  9899  9894  9899      1
  9900  9899  9900      1
  9901  9899  9902      1
  9902  9899  9903      1
  9903  9900  9901      1
  9904  9900  9904      1
  9905  9900  9905      1
  9906  9901  9906      1
  9907  9906  9907      1
  9908  9906  9909      1
  9909  9906  9910      1
  9910  9907  9908      1
  9911  9907  9911      1
  9912  9907  9912      1
  9913  9908  9913      1
  9914  9913  9914      1
  9915  9913  9916      1
  9916  9913  9917      1
  9917  9914  9915      1
  9918  9914  9918      1
  9919  9914  9919      1
  9920  9915  9920      1
  9921  9920  9921      1
  9922  9920  9923      1
  9923  9920  9924      1
  9924  9921  9922      1
  9925  9921  9925      1
  9926  9921  9926      1
  9927  9922  9927      1
  9928  9927  9928      1
  9929  9927  9930      1
  9930  9927  9931      1
  9931  9928  9929      1
  9932  9928  9932      1
  9933  9928  9933      1
  9934  9929  9934      1
  9935  9934  9935      1
  9936  9934  9937      1
  9937  9934  9938      1
  9938  9935  9936      1
  9939  9935  9939      1
  9940  9935  9940      1
  9941  9936  9941      1
  9942  9941  9942      1
  9943  9941  9944      1
  9944  9941  9945      1
  9945  9942  9943      1
  9946  9942  9946      1
  9947  9942  9947      1
  9948  9943  9948      1
  9949  9948  9949      1
  9950  9948  9951      1
  9951  9948  9952      1
  9952  9949  9950      1
  9953  9949  9953      1
  9954  9949  9954      1
  9955  9950  9955      1
  9956  9955  9956      1
  9957  9955  9958      1
  9958  9955  9959      1
  9959  9956  9957      1
  9960  9956  9960      1
  9961  9956  9961      1
  9962  9957  9962      1
  9963  9962  9963      1
  9964  9962  9965      1
  9965  9962  9966      1
  9966  9963  9964      1
  9967  9963  9967      1
  9968  9963  9968      1
  9969  9964  9969      1
  9970  9969  9970      1
  9971  9969  9972      1
  9972  9969  9973      1
  9973  9970  9971      1
  9974  9970  9974      1
  9975  9970  9975      1
  9976  9971  9976      1
  9977  9976  9977      1
  9978  9976  9979      1
  9979  9976  9980      1
  9980  9977  9978      1
  9981  9977  9981      1
  9982  9977  9982      1
  9983  9978  9983      1
  9984  9983  9984      1
  9985  9983  9986      1
  9986  9983  9987      1
  9987  9984  9985      1
  9988  9984  9988      1
  9989  9984  9989      1
  9990  9985  9990      1
  9991  9990  9991      1
  9992  9990  9993      1
  9993  9990  9994      1
  9994  9991  9992      1
  9995  9991  9995      1
  9996  9991  9996      1
  9997  9992  9997      1
  9998  9997  9998      1
  9999  9997 10000      1
 10000  9997 10001      1
 10001  9998  9999      1
 10002  9998 10002      1
 10003  9998 10003      1
 10004  9999 10004      1
 10005 10004 10005      1
 10006 10004 10007      1
 10007 10004 10008      1
 10008 10005 10006      1
 10009 10005 10009      1
 10010 10005 10010      1
 10011 10006 10011      1
 10012 10011 10012      1
 10013 10011 10014      1
 10014 10011 10015      1
 10015 10012 10013      1
 10016 10012 10016      1
 10017 10012 10017      1
 10018 10013 10018      1
 10019 10018 10019      1
 10020 10018 10021      1
 10021 10018 10022      1
 10022 10019 10020      1
 10023 10019 10023      1
 10024 10019 10024      1
 10025 10020 10025      1
 10026 10025 10026      1
 10027 10025 10028      1
 10028 10025 10029      1
 10029 10026 10027      1
 10030 10026 10030      1
 10031 10026 10031      1
 10032 10027 10032      1
 10033 10032 10033      1
 10034 10032 10035      1
 10035 10032 10036      1
 10036 10033 10034      1
 10037 10033 10037      1
 10038 10033 10038      1
 10039 10034 10039      1
 10040 10039 10040      1
 10041 10039 10042      1
 10042 10039 10043      1
 10043 10040 10041      1
 10044 10040 10044      1
 10045 10040 10045      1
 10046 10041 10046      1
 10047 10046 10047      1
 10048 10046 10049      1
 10049 10046 10050      1
 10050 10047 10048      1
 10051 10047 10051      1
 10052 10047 10052      1
 10053 10048 10053      1
 10054 10053 10054      1
 10055 10053 10056      1
 10056 10053 10057      1
 10057 10054 10055      1
 10058 10054 10058      1
 10059 10054 10059      1
 10060 10055 10060      1
 10061 10060 10061      1
 10062 10060 10063      1
 10063 10060 10064      1
 10064 10061 10062      1
 10065 10061 10065      1
 10066 10061 10066      1
 10067 10062 10067      1
 10068 10067 10068      1
 10069 10067 10070      1
 10070 10067 10071      1
 10071 10068 10069      1
 10072 10068 10072      1
 10073 10068 10073      1
 10074 10069 10074      1
 10075 10074 10075      1
 10076 10074 10077      1
 10077 10074 10078      1
 10078 10075 10076      1
 10079 10075 10079      1
 10080 10075 10080      1
 10081 10076 10081      1
 10082 10081 10082      1
 10083 10081 10084      1
 10084 10081 10085      1
 10085 10082 10083      1
 10086 10082 10086      1
 10087 10082 10087      1
 10088 10083 10088      1
 10089 10088 10089      1
 10090 10088 10091      1
 10091 10088 10092      1
 10092 10089 10090      1
 10093 10089 10093      1
 10094 10089 10094      1
 10095 10090 10095      1
 10096 10095 10096      1
 10097 10095 10098      1
 10098 10095 10099      1
 10099 10096 10097      1
 10100 10096 10100      1
 10101 10096 10101      1
 10102 10097 10102      1
 10103 10102 10103      1
 10104 10102 10105      1
 10105 10102 10106      1
 10106 10103 10104      1
 10107 10103 10107      1
 10108 10103 10108      1
 10109 10104 10109      1
 10110 10109 10110      1
 10111 10109 10112      1
 10112 10109 10113      1
 10113 10110 10111      1
 10114 10110 10114      1
 10115 10110 10115      1
 10116 10111 10116      1
 10117 10116 10117      1
 10118 10116 10119      1
 10119 10116 10120      1
 10120 10117 10118      1
 10121 10117 10121      1
 10122 10117 10122      1
 10123 10118 10123      1
 10124 10123 10124      1
 10125 10123 10126      1
 10126 10123 10127      1
 10127 10124 10125      1
 10128 10124 10128      1
 10129 10124 10129      1
 10130 10125 10130      1
 10131 10130 10131      1
 10132 10130 10133      1
 10133 10130 10134      1
 10134 10131 10132      1
 10135 10131 10135      1
 10136 10131 10136      1
 10137 10132 10137      1
 10138 10137 10138      1
 10139 10137 10140      1
 10140 10137 10141      1
 10141 10138 10139      1
 10142 10138 10142      1
 10143 10138 10143      1
 10144 10139 10144      1
