###
### Created by PolyChef-cpp17 on Mon May 12 14:45:29 2025
###

@<TRIPOS>MOLECULE
NO_INFO
9186 9185 1 0 0
SMALL
USER_CHARGES


@<TRIPOS>ATOM
      1 C         262.8462  275.4489   20.1343 C.3       0      M_A    0.0000
      2 C         263.2464  276.9066   20.3243 C.3       0      M_A    0.0000
      3 O         262.5593  277.4252   21.4623 O.3       0      M_A    0.0000
      4 H         263.6857  274.7914   20.3871 H         0      M_A    0.0000
      5 H         262.0214  275.2123   20.8160 H         0      M_A    0.0000
      6 H         262.9502  277.4610   19.4227 H         0      M_A    0.0000
      7 H         264.3312  277.0093   20.4608 H         0      M_A    0.0000
      8 C         262.8300  278.8011   21.6249 C.3       1      M_A    0.0000
      9 C         263.8683  279.0721   22.7064 C.3       1      M_A    0.0000
     10 O         263.1982  279.2195   23.9574 O.3       1      M_A    0.0000
     11 H         261.8947  279.3213   21.8611 H         1      M_A    0.0000
     12 H         263.1970  279.1936   20.6698 H         1      M_A    0.0000
     13 H         264.3919  280.0037   22.4494 H         1      M_A    0.0000
     14 H         264.6043  278.2593   22.7673 H         1      M_A    0.0000
     15 C         264.1245  279.2257   25.0225 C.3       2      M_A    0.0000
     16 C         263.8296  278.1539   26.0645 C.3       2      M_A    0.0000
     17 O         263.2050  278.7694   27.1899 O.3       2      M_A    0.0000
     18 H         264.1213  280.2169   25.4899 H         2      M_A    0.0000
     19 H         265.1248  279.0564   24.6081 H         2      M_A    0.0000
     20 H         264.7845  277.7012   26.3665 H         2      M_A    0.0000
     21 H         263.1800  277.3676   25.6570 H         2      M_A    0.0000
     22 C         262.0946  278.0119   27.6211 C.3       3      M_A    0.0000
     23 C         260.7913  278.7997   27.5735 C.3       3      M_A    0.0000
     24 O         259.8409  278.1639   28.4270 O.3       3      M_A    0.0000
     25 H         262.2825  277.6550   28.6401 H         3      M_A    0.0000
     26 H         262.0058  277.1335   26.9720 H         3      M_A    0.0000
     27 H         260.4275  278.7930   26.5364 H         3      M_A    0.0000
     28 H         260.9416  279.8412   27.8876 H         3      M_A    0.0000
     29 C         258.7310  279.0063   28.6534 C.3       4      M_A    0.0000
     30 C         257.6876  278.3717   29.5645 C.3       4      M_A    0.0000
     31 O         256.3912  278.6419   29.0332 O.3       4      M_A    0.0000
     32 H         258.2808  279.2671   27.6888 H         4      M_A    0.0000
     33 H         259.0919  279.9330   29.1135 H         4      M_A    0.0000
     34 H         257.7862  278.8241   30.5612 H         4      M_A    0.0000
     35 H         257.8396  277.2877   29.6528 H         4      M_A    0.0000
     36 C         255.4077  278.5409   30.0408 C.3       5      M_A    0.0000
     37 C         254.2610  277.6159   29.6524 C.3       5      M_A    0.0000
     38 O         253.0416  278.1650   30.1499 O.3       5      M_A    0.0000
     39 H         255.0246  279.5430   30.2645 H         5      M_A    0.0000
     40 H         255.8854  278.1569   30.9492 H         5      M_A    0.0000
     41 H         254.4453  276.6345   30.1115 H         5      M_A    0.0000
     42 H         254.2000  277.4897   28.5631 H         5      M_A    0.0000
     43 C         252.0683  277.1553   30.3107 C.3       6      M_A    0.0000
     44 C         250.7076  277.5565   29.7548 C.3       6      M_A    0.0000
     45 O         249.7035  276.7636   30.3863 O.3       6      M_A    0.0000
     46 H         251.9833  276.9106   31.3756 H         6      M_A    0.0000
     47 H         252.4170  276.2566   29.7896 H         6      M_A    0.0000
     48 H         250.7121  277.3639   28.6727 H         6      M_A    0.0000
     49 H         250.5056  278.6229   29.9222 H         6      M_A    0.0000
     50 C         248.5940  276.5889   29.5312 C.3       7      M_A    0.0000
     51 C         247.2991  276.3343   30.2927 C.3       7      M_A    0.0000
     52 O         246.5675  275.3097   29.6214 O.3       7      M_A    0.0000
     53 H         248.7998  275.7567   28.8484 H         7      M_A    0.0000
     54 H         248.4811  277.4956   28.9262 H         7      M_A    0.0000
     55 H         246.7186  277.2675   30.2981 H         7      M_A    0.0000
     56 H         247.4975  276.0364   31.3310 H         7      M_A    0.0000
     57 C         245.2897  275.1482   30.1992 C.3       8      M_A    0.0000
     58 C         244.8866  273.6851   30.3350 C.3       8      M_A    0.0000
     59 O         243.5033  273.5594   30.0084 O.3       8      M_A    0.0000
     60 H         244.5544  275.6870   29.5909 H         8      M_A    0.0000
     61 H         245.3018  275.6099   31.1929 H         8      M_A    0.0000
     62 H         245.0549  273.3813   31.3777 H         8      M_A    0.0000
     63 H         245.4881  273.0417   29.6789 H         8      M_A    0.0000
     64 C         242.9116  272.5063   30.7386 C.3       9      M_A    0.0000
     65 C         242.5711  271.3046   29.8660 C.3       9      M_A    0.0000
     66 O         241.3482  270.7342   30.3297 O.3       9      M_A    0.0000
     67 H         242.0083  272.8811   31.2333 H         9      M_A    0.0000
     68 H         243.6136  272.1938   31.5200 H         9      M_A    0.0000
     69 H         243.3860  270.5733   29.9612 H         9      M_A    0.0000
     70 H         242.4761  271.5910   28.8100 H         9      M_A    0.0000
     71 C         241.1593  269.4463   29.7837 C.3      10      M_A    0.0000
     72 C         239.6923  269.1277   29.5228 C.3      10      M_A    0.0000
     73 O         239.5071  267.7160   29.6156 O.3      10      M_A    0.0000
     74 H         241.5906  268.7047   30.4658 H        10      M_A    0.0000
     75 H         241.7113  269.3900   28.8387 H        10      M_A    0.0000
     76 H         239.4444  269.4727   28.5092 H        10      M_A    0.0000
     77 H         239.0377  269.6410   30.2399 H        10      M_A    0.0000
     78 C         238.3969  267.3064   28.8460 C.3      11      M_A    0.0000
     79 C         237.6193  266.1682   29.4952 C.3      11      M_A    0.0000
     80 O         237.5555  265.0765   28.5788 O.3      11      M_A    0.0000
     81 H         238.7459  267.0055   27.8517 H        11      M_A    0.0000
     82 H         237.7314  268.1676   28.7185 H        11      M_A    0.0000
     83 H         236.6060  266.5316   29.7168 H        11      M_A    0.0000
     84 H         238.0909  265.8453   30.4330 H        11      M_A    0.0000
     85 C         237.4702  263.8487   29.2700 C.3      12      M_A    0.0000
     86 C         236.3704  262.9441   28.7280 C.3      12      M_A    0.0000
     87 O         235.6786  262.3553   29.8283 O.3      12      M_A    0.0000
     88 H         237.3018  264.0512   30.3338 H        12      M_A    0.0000
     89 H         238.4339  263.3353   29.1775 H        12      M_A    0.0000
     90 H         236.8435  262.1605   28.1197 H        12      M_A    0.0000
     91 H         235.6669  263.5035   28.0971 H        12      M_A    0.0000
     92 C         234.4244  261.8536   29.4187 C.3      13      M_A    0.0000
     93 C         233.3441  262.0360   30.4776 C.3      13      M_A    0.0000
     94 O         232.2711  261.1387   30.1957 O.3      13      M_A    0.0000
     95 H         234.5314  260.7921   29.1681 H        13      M_A    0.0000
     96 H         234.1247  262.3823   28.5068 H        13      M_A    0.0000
     97 H         232.9882  263.0745   30.4250 H        13      M_A    0.0000
     98 H         233.7364  261.8484   31.4860 H        13      M_A    0.0000
     99 C         231.0355  261.7003   30.5838 C.3      14      M_A    0.0000
    100 C         230.3657  260.9252   31.7116 C.3      14      M_A    0.0000
    101 O         229.1115  260.4303   31.2447 O.3      14      M_A    0.0000
    102 H         230.3746  261.7420   29.7105 H        14      M_A    0.0000
    103 H         231.2153  262.7296   30.9144 H        14      M_A    0.0000
    104 H         230.2071  261.6159   32.5517 H        14      M_A    0.0000
    105 H         230.9949  260.0927   32.0537 H        14      M_A    0.0000
    106 C         228.3091  260.0047   32.3253 C.3      15      M_A    0.0000
    107 C         229.0639  259.1116   33.3021 C.3      15      M_A    0.0000
    108 O         228.1836  258.0852   33.7575 O.3      15      M_A    0.0000
    109 H         227.4335  259.4766   31.9308 H        15      M_A    0.0000
    110 H         227.9501  260.8933   32.8567 H        15      M_A    0.0000
    111 H         229.3872  259.7319   34.1498 H        15      M_A    0.0000
    112 H         229.9511  258.6657   32.8330 H        15      M_A    0.0000
    113 C         228.5908  257.6019   35.0197 C.3      16      M_A    0.0000
    114 C         228.7740  256.0894   35.0390 C.3      16      M_A    0.0000
    115 O         227.7140  255.5099   35.7982 O.3      16      M_A    0.0000
    116 H         227.8506  257.9017   35.7703 H        16      M_A    0.0000
    117 H         229.5415  258.0809   35.2800 H        16      M_A    0.0000
    118 H         229.7399  255.8698   35.5151 H        16      M_A    0.0000
    119 H         228.7794  255.6740   34.0224 H        16      M_A    0.0000
    120 C         226.5426  255.4010   35.0181 C.3      17      M_A    0.0000
    121 C         226.0088  253.9754   34.9548 C.3      17      M_A    0.0000
    122 O         226.6084  253.3113   33.8433 O.3      17      M_A    0.0000
    123 H         226.7533  255.7701   34.0079 H        17      M_A    0.0000
    124 H         225.7768  256.0508   35.4567 H        17      M_A    0.0000
    125 H         224.9193  254.0259   34.8184 H        17      M_A    0.0000
    126 H         226.2230  253.4264   35.8814 H        17      M_A    0.0000
    127 C         225.7301  252.3460   33.3053 C.3      18      M_A    0.0000
    128 C         225.6120  251.1054   34.1817 C.3      18      M_A    0.0000
    129 O         225.8639  249.9527   33.3794 O.3      18      M_A    0.0000
    130 H         226.0782  252.0685   32.3038 H        18      M_A    0.0000
    131 H         224.7405  252.8044   33.1984 H        18      M_A    0.0000
    132 H         224.5890  251.0676   34.5817 H        18      M_A    0.0000
    133 H         226.3180  251.1404   35.0222 H        18      M_A    0.0000
    134 C         225.0666  248.8668   33.8010 C.3      19      M_A    0.0000
    135 C         225.8831  247.6104   34.0775 C.3      19      M_A    0.0000
    136 O         225.0633  246.4688   33.8319 O.3      19      M_A    0.0000
    137 H         224.3097  248.6637   33.0349 H        19      M_A    0.0000
    138 H         224.5422  249.1616   34.7170 H        19      M_A    0.0000
    139 H         226.1919  247.6306   35.1321 H        19      M_A    0.0000
    140 H         226.7819  247.5707   33.4477 H        19      M_A    0.0000
    141 C         225.3775  245.4259   34.7298 C.3      20      M_A    0.0000
    142 C         226.3952  244.4458   34.1596 C.3      20      M_A    0.0000
    143 O         226.1457  243.1541   34.7117 O.3      20      M_A    0.0000
    144 H         224.4551  244.8983   34.9978 H        20      M_A    0.0000
    145 H         225.7837  245.8717   35.6448 H        20      M_A    0.0000
    146 H         227.3981  244.7901   34.4490 H        20      M_A    0.0000
    147 H         226.3396  244.4037   33.0636 H        20      M_A    0.0000
    148 C         227.2171  242.2775   34.4356 C.3      21      M_A    0.0000
    149 C         227.1305  241.6633   33.0439 C.3      21      M_A    0.0000
    150 O         227.9580  240.5016   33.0041 O.3      21      M_A    0.0000
    151 H         227.2348  241.4881   35.1956 H        21      M_A    0.0000
    152 H         228.1526  242.8419   34.5201 H        21      M_A    0.0000
    153 H         227.4931  242.4071   32.3206 H        21      M_A    0.0000
    154 H         226.0962  241.3974   32.7875 H        21      M_A    0.0000
    155 C         227.6208  239.6123   34.0472 C.3      22      M_A    0.0000
    156 C         227.9079  238.1579   33.6955 C.3      22      M_A    0.0000
    157 O         227.1339  237.3188   34.5515 O.3      22      M_A    0.0000
    158 H         226.5602  239.7387   34.2924 H        22      M_A    0.0000
    159 H         228.2026  239.8876   34.9342 H        22      M_A    0.0000
    160 H         228.9791  237.9736   33.8582 H        22      M_A    0.0000
    161 H         227.6693  237.9457   32.6447 H        22      M_A    0.0000
    162 C         227.0445  236.0129   34.0230 C.3      23      M_A    0.0000
    163 C         226.9334  234.9468   35.1058 C.3      23      M_A    0.0000
    164 O         228.2237  234.3770   35.3210 O.3      23      M_A    0.0000
    165 H         227.9227  235.8230   33.3955 H        23      M_A    0.0000
    166 H         226.1588  235.9632   33.3795 H        23      M_A    0.0000
    167 H         226.2364  234.1741   34.7522 H        23      M_A    0.0000
    168 H         226.5469  235.3678   36.0436 H        23      M_A    0.0000
    169 C         228.2251  233.5660   36.4764 C.3      24      M_A    0.0000
    170 C         229.4053  233.8546   37.3957 C.3      24      M_A    0.0000
    171 O         230.0067  232.6162   37.7708 O.3      24      M_A    0.0000
    172 H         228.2334  232.5134   36.1712 H        24      M_A    0.0000
    173 H         227.2928  233.7465   37.0233 H        24      M_A    0.0000
    174 H         229.0235  234.3714   38.2874 H        24      M_A    0.0000
    175 H         230.1466  234.4994   36.9049 H        24      M_A    0.0000
    176 C         230.5853  232.7107   39.0549 C.3      25      M_A    0.0000
    177 C         231.7051  231.7004   39.2709 C.3      25      M_A    0.0000
    178 O         231.2519  230.7037   40.1858 O.3      25      M_A    0.0000
    179 H         229.8017  232.5719   39.8084 H        25      M_A    0.0000
    180 H         230.9879  233.7227   39.1760 H        25      M_A    0.0000
    181 H         232.5676  232.2340   39.6945 H        25      M_A    0.0000
    182 H         232.0098  231.2325   38.3252 H        25      M_A    0.0000
    183 C         232.3092  229.8420   40.5495 C.3      26      M_A    0.0000
    184 C         232.1098  228.4197   40.0408 C.3      26      M_A    0.0000
    185 O         233.1578  228.1108   39.1231 O.3      26      M_A    0.0000
    186 H         232.4074  229.8418   41.6410 H        26      M_A    0.0000
    187 H         233.2389  230.2445   40.1318 H        26      M_A    0.0000
    188 H         231.1380  228.3743   39.5294 H        26      M_A    0.0000
    189 H         232.1076  227.6959   40.8668 H        26      M_A    0.0000
    190 C         233.8976  226.9937   39.5675 C.3      27      M_A    0.0000
    191 C         233.6634  226.6817   41.0403 C.3      27      M_A    0.0000
    192 O         234.8404  226.0756   41.5725 O.3      27      M_A    0.0000
    193 H         234.9625  227.1782   39.3859 H        27      M_A    0.0000
    194 H         233.6030  226.1261   38.9665 H        27      M_A    0.0000
    195 H         232.8176  225.9832   41.1097 H        27      M_A    0.0000
    196 H         233.4183  227.5895   41.6077 H        27      M_A    0.0000
    197 C         234.5061  225.0264   42.4558 C.3      28      M_A    0.0000
    198 C         235.6806  224.5921   43.3238 C.3      28      M_A    0.0000
    199 O         236.0315  223.2521   42.9816 O.3      28      M_A    0.0000
    200 H         234.1336  224.1766   41.8727 H        28      M_A    0.0000
    201 H         233.6906  225.3693   43.1025 H        28      M_A    0.0000
    202 H         235.3628  224.6399   44.3748 H        28      M_A    0.0000
    203 H         236.5459  225.2543   43.1867 H        28      M_A    0.0000
    204 C         236.9312  223.2336   41.8940 C.3      29      M_A    0.0000
    205 C         236.2820  222.7535   40.6020 C.3      29      M_A    0.0000
    206 O         236.5570  221.3627   40.4411 O.3      29      M_A    0.0000
    207 H         237.7830  222.5928   42.1489 H        29      M_A    0.0000
    208 H         237.3123  224.2505   41.7468 H        29      M_A    0.0000
    209 H         236.7206  223.3213   39.7695 H        29      M_A    0.0000
    210 H         235.1971  222.9238   40.6120 H        29      M_A    0.0000
    211 C         235.5886  220.7546   39.6134 C.3      30      M_A    0.0000
    212 C         235.3921  219.2765   39.9266 C.3      30      M_A    0.0000
    213 O         236.0945  218.5053   38.9531 O.3      30      M_A    0.0000
    214 H         235.8862  220.8819   38.5664 H        30      M_A    0.0000
    215 H         234.6375  221.2801   39.7553 H        30      M_A    0.0000
    216 H         234.3163  219.0577   39.8735 H        30      M_A    0.0000
    217 H         235.7529  219.0295   40.9340 H        30      M_A    0.0000
    218 C         235.5364  217.2135   38.8420 C.3      31      M_A    0.0000
    219 C         236.0464  216.2585   39.9140 C.3      31      M_A    0.0000
    220 O         236.5051  215.0641   39.2822 O.3      31      M_A    0.0000
    221 H         235.7589  216.8152   37.8455 H        31      M_A    0.0000
    222 H         234.4476  217.3015   38.9296 H        31      M_A    0.0000
    223 H         235.2109  216.0282   40.5898 H        31      M_A    0.0000
    224 H         236.8586  216.7104   40.4989 H        31      M_A    0.0000
    225 C         236.6688  214.0298   40.2287 C.3      32      M_A    0.0000
    226 C         237.7588  213.0405   39.8357 C.3      32      M_A    0.0000
    227 O         237.5316  211.8117   40.5245 O.3      32      M_A    0.0000
    228 H         235.7131  213.5080   40.3531 H        32      M_A    0.0000
    229 H         236.9278  214.4839   41.1918 H        32      M_A    0.0000
    230 H         238.7274  213.4648   40.1353 H        32      M_A    0.0000
    231 H         237.7701  212.8674   38.7512 H        32      M_A    0.0000
    232 C         236.2826  211.2611   40.1646 C.3      33      M_A    0.0000
    233 C         235.9300  210.0222   40.9784 C.3      33      M_A    0.0000
    234 O         236.5003  208.8794   40.3424 O.3      33      M_A    0.0000
    235 H         236.2961  211.0190   39.0958 H        33      M_A    0.0000
    236 H         235.5127  212.0246   40.3231 H        33      M_A    0.0000
    237 H         234.8349  209.9310   41.0017 H        33      M_A    0.0000
    238 H         236.2991  210.1023   42.0096 H        33      M_A    0.0000
    239 C         237.7943  208.6223   40.8444 C.3      34      M_A    0.0000
    240 C         237.9759  207.1763   41.2887 C.3      34      M_A    0.0000
    241 O         238.4734  207.1676   42.6260 O.3      34      M_A    0.0000
    242 H         237.9918  209.3016   41.6814 H        34      M_A    0.0000
    243 H         238.5197  208.8479   40.0546 H        34      M_A    0.0000
    244 H         238.7033  206.7021   40.6149 H        34      M_A    0.0000
    245 H         237.0308  206.6195   41.2352 H        34      M_A    0.0000
    246 C         239.3158  206.0549   42.8382 C.3      35      M_A    0.0000
    247 C         238.6366  204.9465   43.6330 C.3      35      M_A    0.0000
    248 O         238.5084  203.7970   42.7975 O.3      35      M_A    0.0000
    249 H         240.2219  206.3894   43.3561 H        35      M_A    0.0000
    250 H         239.6171  205.6615   41.8608 H        35      M_A    0.0000
    251 H         237.6419  205.3042   43.9340 H        35      M_A    0.0000
    252 H         239.2084  204.6935   44.5359 H        35      M_A    0.0000
    253 C         237.7415  202.7986   43.4360 C.3      36      M_A    0.0000
    254 C         236.6007  202.2870   42.5653 C.3      36      M_A    0.0000
    255 O         235.3955  202.3125   43.3286 O.3      36      M_A    0.0000
    256 H         237.3471  203.2009   44.3761 H        36      M_A    0.0000
    257 H         238.4051  201.9626   43.6842 H        36      M_A    0.0000
    258 H         236.8353  201.2549   42.2692 H        36      M_A    0.0000
    259 H         236.4849  202.8960   41.6588 H        36      M_A    0.0000
    260 C         234.2731  202.1102   42.4967 C.3      37      M_A    0.0000
    261 C         233.1310  203.0699   42.8067 C.3      37      M_A    0.0000
    262 O         232.0523  202.3289   43.3751 O.3      37      M_A    0.0000
    263 H         233.9342  201.0735   42.6038 H        37      M_A    0.0000
    264 H         234.5872  202.2518   41.4564 H        37      M_A    0.0000
    265 H         232.8111  203.5340   41.8632 H        37      M_A    0.0000
    266 H         233.4497  203.8611   43.4984 H        37      M_A    0.0000
    267 C         230.8179  202.9595   43.1082 C.3      38      M_A    0.0000
    268 C         230.6882  204.3128   43.7961 C.3      38      M_A    0.0000
    269 O         229.3031  204.6326   43.9191 O.3      38      M_A    0.0000
    270 H         230.0048  202.2962   43.4244 H        38      M_A    0.0000
    271 H         230.7312  203.0990   42.0247 H        38      M_A    0.0000
    272 H         231.1920  205.0624   43.1699 H        38      M_A    0.0000
    273 H         231.1620  204.3051   44.7868 H        38      M_A    0.0000
    274 C         229.1215  205.7493   44.7633 C.3      39      M_A    0.0000
    275 C         227.7314  206.3605   44.6389 C.3      39      M_A    0.0000
    276 O         227.8434  207.6220   43.9817 O.3      39      M_A    0.0000
    277 H         229.8855  206.4993   44.5290 H        39      M_A    0.0000
    278 H         229.2791  205.4260   45.7985 H        39      M_A    0.0000
    279 H         227.3292  206.4998   45.6522 H        39      M_A    0.0000
    280 H         227.0539  205.7028   44.0780 H        39      M_A    0.0000
    281 C         226.5971  208.2843   43.9565 C.3      40      M_A    0.0000
    282 C         225.6858  207.7801   42.8444 C.3      40      M_A    0.0000
    283 O         224.7237  208.7911   42.5475 O.3      40      M_A    0.0000
    284 H         226.7693  209.3607   43.8439 H        40      M_A    0.0000
    285 H         226.1046  208.1254   44.9225 H        40      M_A    0.0000
    286 H         225.1786  206.8740   43.2048 H        40      M_A    0.0000
    287 H         226.2579  207.5283   41.9414 H        40      M_A    0.0000
    288 C         223.5455  208.2198   42.0201 C.3      41      M_A    0.0000
    289 C         223.0553  208.9349   40.7672 C.3      41      M_A    0.0000
    290 O         221.6904  209.3053   40.9562 O.3      41      M_A    0.0000
    291 H         222.7675  208.2349   42.7917 H        41      M_A    0.0000
    292 H         223.7520  207.1715   41.7763 H        41      M_A    0.0000
    293 H         223.1411  208.2376   39.9220 H        41      M_A    0.0000
    294 H         223.6606  209.8256   40.5521 H        41      M_A    0.0000
    295 C         221.0567  209.5273   39.7146 C.3      42      M_A    0.0000
    296 C         221.8533  210.4548   38.8054 C.3      42      M_A    0.0000
    297 O         220.9878  210.9487   37.7842 O.3      42      M_A    0.0000
    298 H         220.0583  209.9419   39.8948 H        42      M_A    0.0000
    299 H         220.9301  208.5595   39.2162 H        42      M_A    0.0000
    300 H         222.6694  209.8719   38.3559 H        42      M_A    0.0000
    301 H         222.2867  211.2920   39.3687 H        42      M_A    0.0000
    302 C         221.5933  210.8278   36.5148 C.3      43      M_A    0.0000
    303 C         221.1690  211.9311   35.5536 C.3      43      M_A    0.0000
    304 O         221.0518  211.3769   34.2440 O.3      43      M_A    0.0000
    305 H         221.3454  209.8462   36.0953 H        43      M_A    0.0000
    306 H         222.6803  210.8677   36.6481 H        43      M_A    0.0000
    307 H         221.9458  212.7085   35.5637 H        43      M_A    0.0000
    308 H         220.2150  212.3820   35.8580 H        43      M_A    0.0000
    309 C         221.3437  212.3485   33.2626 C.3      44      M_A    0.0000
    310 C         220.6586  212.0642   31.9317 C.3      44      M_A    0.0000
    311 O         221.6175  212.2036   30.8844 O.3      44      M_A    0.0000
    312 H         222.4298  212.3984   33.1245 H        44      M_A    0.0000
    313 H         221.0107  213.3237   33.6356 H        44      M_A    0.0000
    314 H         219.8512  212.7984   31.8011 H        44      M_A    0.0000
    315 H         220.2244  211.0557   31.9126 H        44      M_A    0.0000
    316 C         221.1005  211.7139   29.6656 C.3      45      M_A    0.0000
    317 C         220.9744  212.7982   28.6026 C.3      45      M_A    0.0000
    318 O         219.8365  212.5128   27.7906 O.3      45      M_A    0.0000
    319 H         220.1234  211.2546   29.8535 H        45      M_A    0.0000
    320 H         221.7719  210.9294   29.2987 H        45      M_A    0.0000
    321 H         221.8865  212.7813   27.9896 H        45      M_A    0.0000
    322 H         220.8730  213.7933   29.0561 H        45      M_A    0.0000
    323 C         219.4917  213.6322   27.0028 C.3      46      M_A    0.0000
    324 C         217.9877  213.8692   26.9444 C.3      46      M_A    0.0000
    325 O         217.5001  213.4070   25.6857 O.3      46      M_A    0.0000
    326 H         219.8906  213.4912   25.9919 H        46      M_A    0.0000
    327 H         219.9769  214.5161   27.4318 H        46      M_A    0.0000
    328 H         217.8095  214.9493   27.0420 H        46      M_A    0.0000
    329 H         217.4689  213.3511   27.7621 H        46      M_A    0.0000
    330 C         216.1457  213.0220   25.7856 C.3      47      M_A    0.0000
    331 C         215.9561  211.7422   26.5904 C.3      47      M_A    0.0000
    332 O         214.7435  211.1157   26.1747 O.3      47      M_A    0.0000
    333 H         215.7369  212.8969   24.7765 H        47      M_A    0.0000
    334 H         215.5930  213.8348   26.2702 H        47      M_A    0.0000
    335 H         215.8922  212.0151   27.6532 H        47      M_A    0.0000
    336 H         216.8012  211.0544   26.4533 H        47      M_A    0.0000
    337 C         214.1145  210.4737   27.2632 C.3      48      M_A    0.0000
    338 C         213.6461  209.0642   26.9235 C.3      48      M_A    0.0000
    339 O         212.2222  209.0646   26.8325 O.3      48      M_A    0.0000
    340 H         213.2659  211.0838   27.5930 H        48      M_A    0.0000
    341 H         214.8300  210.4232   28.0917 H        48      M_A    0.0000
    342 H         213.9701  208.3940   27.7321 H        48      M_A    0.0000
    343 H         214.0834  208.7140   25.9789 H        48      M_A    0.0000
    344 C         211.7062  207.7724   27.0700 C.3      49      M_A    0.0000
    345 C         211.4599  206.9923   25.7846 C.3      49      M_A    0.0000
    346 O         210.2550  206.2417   25.9287 O.3      49      M_A    0.0000
    347 H         210.7753  207.8614   27.6414 H        49      M_A    0.0000
    348 H         212.4254  207.2243   27.6891 H        49      M_A    0.0000
    349 H         212.3095  206.3122   25.6313 H        49      M_A    0.0000
    350 H         211.3842  207.6627   24.9180 H        49      M_A    0.0000
    351 C         210.3026  205.0663   25.1484 C.3      50      M_A    0.0000
    352 C         208.9330  204.6526   24.6245 C.3      50      M_A    0.0000
    353 O         208.6728  203.3107   25.0338 O.3      50      M_A    0.0000
    354 H         210.7363  204.2588   25.7491 H        50      M_A    0.0000
    355 H         210.9716  205.2453   24.2991 H        50      M_A    0.0000
    356 H         208.9563  204.7123   23.5273 H        50      M_A    0.0000
    357 H         208.1439  205.3194   24.9971 H        50      M_A    0.0000
    358 C         207.5519  202.7893   24.3524 C.3      51      M_A    0.0000
    359 C         206.6492  201.9581   25.2556 C.3      51      M_A    0.0000
    360 O         206.0860  200.8960   24.4871 O.3      51      M_A    0.0000
    361 H         207.8999  202.1844   23.5074 H        51      M_A    0.0000
    362 H         206.9765  203.6288   23.9461 H        51      M_A    0.0000
    363 H         205.8508  202.6121   25.6334 H        51      M_A    0.0000
    364 H         207.2049  201.5502   26.1106 H        51      M_A    0.0000
    365 C         205.3190  201.4060   23.4174 C.3      52      M_A    0.0000
    366 C         203.9873  200.6844   23.2524 C.3      52      M_A    0.0000
    367 O         203.7517  200.4710   21.8615 O.3      52      M_A    0.0000
    368 H         205.9047  201.3324   22.4940 H        52      M_A    0.0000
    369 H         205.1293  202.4685   23.6073 H        52      M_A    0.0000
    370 H         203.1990  201.3250   23.6724 H        52      M_A    0.0000
    371 H         203.9833  199.7247   23.7863 H        52      M_A    0.0000
    372 C         204.5605  199.4222   21.3732 C.3      53      M_A    0.0000
    373 C         204.8369  199.5396   19.8794 C.3      53      M_A    0.0000
    374 O         205.0731  198.2343   19.3539 O.3      53      M_A    0.0000
    375 H         204.0723  198.4659   21.5923 H        53      M_A    0.0000
    376 H         205.5124  199.4419   21.9159 H        53      M_A    0.0000
    377 H         205.7312  200.1647   19.7470 H        53      M_A    0.0000
    378 H         203.9963  200.0108   19.3528 H        53      M_A    0.0000
    379 C         205.9371  198.2936   18.2391 C.3      54      M_A    0.0000
    380 C         205.9508  196.9986   17.4365 C.3      54      M_A    0.0000
    381 O         207.2891  196.7332   17.0190 O.3      54      M_A    0.0000
    382 H         206.9487  198.5327   18.5864 H        54      M_A    0.0000
    383 H         205.6054  199.1128   17.5912 H        54      M_A    0.0000
    384 H         205.3043  197.1359   16.5583 H        54      M_A    0.0000
    385 H         205.5673  196.1568   18.0284 H        54      M_A    0.0000
    386 C         207.4724  195.3547   16.7763 C.3      55      M_A    0.0000
    387 C         208.2637  195.0822   15.5031 C.3      55      M_A    0.0000
    388 O         207.5160  194.1857   14.6827 O.3      55      M_A    0.0000
    389 H         206.4908  194.8704   16.7211 H        55      M_A    0.0000
    390 H         208.0083  194.9244   17.6299 H        55      M_A    0.0000
    391 H         209.2194  194.6205   15.7889 H        55      M_A    0.0000
    392 H         208.4709  196.0105   14.9543 H        55      M_A    0.0000
    393 C         207.8778  194.3307   13.3260 C.3      56      M_A    0.0000
    394 C         208.4430  193.0483   12.7281 C.3      56      M_A    0.0000
    395 O         209.6600  193.3571   12.0503 O.3      56      M_A    0.0000
    396 H         208.6094  195.1419   13.2385 H        56      M_A    0.0000
    397 H         206.9853  194.6253   12.7626 H        56      M_A    0.0000
    398 H         207.7066  192.6521   12.0149 H        56      M_A    0.0000
    399 H         208.6255  192.2919   13.5031 H        56      M_A    0.0000
    400 C         210.2819  192.1805   11.5797 C.3      57      M_A    0.0000
    401 C         210.7698  191.2815   12.7089 C.3      57      M_A    0.0000
    402 O         211.4064  190.1379   12.1408 O.3      57      M_A    0.0000
    403 H         211.1196  192.4574   10.9295 H        57      M_A    0.0000
    404 H         209.5565  191.6289   10.9710 H        57      M_A    0.0000
    405 H         209.8956  190.9702   13.2978 H        57      M_A    0.0000
    406 H         211.4689  191.8120   13.3692 H        57      M_A    0.0000
    407 C         211.1015  188.9764   12.8829 C.3      58      M_A    0.0000
    408 C         211.6559  187.7087   12.2449 C.3      58      M_A    0.0000
    409 O         210.5901  186.7740   12.0833 O.3      58      M_A    0.0000
    410 H         210.0137  188.8996   12.9908 H        58      M_A    0.0000
    411 H         211.5284  189.0884   13.8860 H        58      M_A    0.0000
    412 H         212.4191  187.2945   12.9187 H        58      M_A    0.0000
    413 H         212.1213  187.9205   11.2729 H        58      M_A    0.0000
    414 C         210.9960  185.6881   11.2780 C.3      59      M_A    0.0000
    415 C         209.8197  184.8811   10.7428 C.3      59      M_A    0.0000
    416 O         209.8199  183.6001   11.3712 O.3      59      M_A    0.0000
    417 H         211.6617  185.0424   11.8621 H        59      M_A    0.0000
    418 H         211.5724  186.0835   10.4340 H        59      M_A    0.0000
    419 H         209.9515  184.7665    9.6577 H        59      M_A    0.0000
    420 H         208.8658  185.3919   10.9300 H        59      M_A    0.0000
    421 C         208.5872  182.9434   11.1669 C.3      60      M_A    0.0000
    422 C         208.5707  181.5321   11.7408 C.3      60      M_A    0.0000
    423 O         207.5119  180.8001   11.1251 O.3      60      M_A    0.0000
    424 H         208.3735  182.9160   10.0923 H        60      M_A    0.0000
    425 H         207.7997  183.5346   11.6478 H        60      M_A    0.0000
    426 H         208.3949  181.6071   12.8231 H        60      M_A    0.0000
    427 H         209.5283  181.0209   11.5737 H        60      M_A    0.0000
    428 C         207.1464  179.6898   11.9164 C.3      61      M_A    0.0000
    429 C         206.7407  178.4813   11.0820 C.3      61      M_A    0.0000
    430 O         205.4768  178.0086   11.5455 O.3      61      M_A    0.0000
    431 H         206.3251  179.9823   12.5806 H        61      M_A    0.0000
    432 H         208.0025  179.4198   12.5449 H        61      M_A    0.0000
    433 H         207.5047  177.7028   11.2170 H        61      M_A    0.0000
    434 H         206.6796  178.7340   10.0150 H        61      M_A    0.0000
    435 C         205.3927  176.6049   11.4221 C.3      62      M_A    0.0000
    436 C         204.4886  176.1687   10.2759 C.3      62      M_A    0.0000
    437 O         203.9406  174.8886   10.5872 O.3      62      M_A    0.0000
    438 H         205.0307  176.1865   12.3682 H        62      M_A    0.0000
    439 H         206.4022  176.2146   11.2503 H        62      M_A    0.0000
    440 H         205.1011  176.1032    9.3657 H        62      M_A    0.0000
    441 H         203.6806  176.8926   10.1058 H        62      M_A    0.0000
    442 C         204.9353  174.0325   11.1070 C.3      63      M_A    0.0000
    443 C         204.8170  172.6070   10.5822 C.3      63      M_A    0.0000
    444 O         203.8881  171.8947   11.3980 O.3      63      M_A    0.0000
    445 H         204.8719  174.0379   12.2011 H        63      M_A    0.0000
    446 H         205.9152  174.4363   10.8285 H        63      M_A    0.0000
    447 H         205.8088  172.1377   10.6457 H        63      M_A    0.0000
    448 H         204.4865  172.5923    9.5350 H        63      M_A    0.0000
    449 C         202.6174  171.8493   10.7849 C.3      64      M_A    0.0000
    450 C         201.9585  170.4802   10.8982 C.3      64      M_A    0.0000
    451 O         201.1386  170.2705    9.7494 O.3      64      M_A    0.0000
    452 H         202.7215  172.1317    9.7311 H        64      M_A    0.0000
    453 H         201.9768  172.5959   11.2677 H        64      M_A    0.0000
    454 H         201.3399  170.4746   11.8066 H        64      M_A    0.0000
    455 H         202.7076  169.6809   10.9768 H        64      M_A    0.0000
    456 C         200.0330  169.4526   10.0676 C.3      65      M_A    0.0000
    457 C         200.3349  167.9678    9.9083 C.3      65      M_A    0.0000
    458 O         199.1168  167.2809    9.6252 O.3      65      M_A    0.0000
    459 H         199.1871  169.7359    9.4309 H        65      M_A    0.0000
    460 H         199.7479  169.6505   11.1071 H        65      M_A    0.0000
    461 H         200.7598  167.6037   10.8543 H        65      M_A    0.0000
    462 H         201.0620  167.7913    9.1043 H        65      M_A    0.0000
    463 C         199.1170  165.9994   10.2170 C.3      66      M_A    0.0000
    464 C         198.5789  164.9212    9.2846 C.3      66      M_A    0.0000
    465 O         197.7924  164.0073   10.0476 O.3      66      M_A    0.0000
    466 H         198.5226  166.0332   11.1371 H        66      M_A    0.0000
    467 H         200.1472  165.7503   10.4954 H        66      M_A    0.0000
    468 H         199.4365  164.3973    8.8396 H        66      M_A    0.0000
    469 H         197.9738  165.3556    8.4776 H        66      M_A    0.0000
    470 C         197.4453  162.8795    9.2728 C.3      67      M_A    0.0000
    471 C         197.1140  161.6605   10.1245 C.3      67      M_A    0.0000
    472 O         197.7375  160.5149    9.5461 O.3      67      M_A    0.0000
    473 H         198.2717  162.6496    8.5906 H        67      M_A    0.0000
    474 H         196.5723  163.1380    8.6628 H        67      M_A    0.0000
    475 H         196.0223  161.5328   10.1257 H        67      M_A    0.0000
    476 H         197.4547  161.7915   11.1603 H        67      M_A    0.0000
    477 C         197.1702  159.3269   10.0554 C.3      68      M_A    0.0000
    478 C         198.2141  158.2582   10.3546 C.3      68      M_A    0.0000
    479 O         197.8582  157.0637    9.6602 O.3      68      M_A    0.0000
    480 H         196.4370  158.9466    9.3351 H        68      M_A    0.0000
    481 H         196.6335  159.5716   10.9789 H        68      M_A    0.0000
    482 H         198.2136  158.0763   11.4385 H        68      M_A    0.0000
    483 H         199.2184  158.5840   10.0524 H        68      M_A    0.0000
    484 C         198.8802  156.0966    9.7738 C.3      69      M_A    0.0000
    485 C         198.9564  155.1766    8.5617 C.3      69      M_A    0.0000
    486 O         198.7204  153.8360    8.9892 O.3      69      M_A    0.0000
    487 H         198.7130  155.5087   10.6835 H        69      M_A    0.0000
    488 H         199.8364  156.6198    9.8868 H        69      M_A    0.0000
    489 H         199.9648  155.2616    8.1330 H        69      M_A    0.0000
    490 H         198.2226  155.4620    7.7960 H        69      M_A    0.0000
    491 C         198.2228  153.0528    7.9255 C.3      70      M_A    0.0000
    492 C         199.1631  151.9172    7.5415 C.3      70      M_A    0.0000
    493 O         199.2223  151.8335    6.1184 O.3      70      M_A    0.0000
    494 H         198.0426  153.7019    7.0610 H        70      M_A    0.0000
    495 H         197.2587  152.6313    8.2317 H        70      M_A    0.0000
    496 H         198.7562  150.9839    7.9555 H        70      M_A    0.0000
    497 H         200.1697  152.0752    7.9513 H        70      M_A    0.0000
    498 C         200.0995  152.8086    5.5968 C.3      71      M_A    0.0000
    499 C         200.9283  152.2893    4.4285 C.3      71      M_A    0.0000
    500 O         202.2465  152.0035    4.8939 O.3      71      M_A    0.0000
    501 H         200.7579  153.1595    6.3996 H        71      M_A    0.0000
    502 H         199.5015  153.6628    5.2597 H        71      M_A    0.0000
    503 H         200.9636  153.0749    3.6608 H        71      M_A    0.0000
    504 H         200.4804  151.3876    3.9898 H        71      M_A    0.0000
    505 C         202.9152  151.1396    4.0001 C.3      72      M_A    0.0000
    506 C         202.3478  149.7256    4.0139 C.3      72      M_A    0.0000
    507 O         203.3882  148.8117    3.6701 O.3      72      M_A    0.0000
    508 H         203.9809  151.1207    4.2551 H        72      M_A    0.0000
    509 H         202.8222  151.5527    2.9894 H        72      M_A    0.0000
    510 H         201.5424  149.6750    3.2677 H        72      M_A    0.0000
    511 H         201.9329  149.4705    4.9982 H        72      M_A    0.0000
    512 C         204.4865  148.9530    4.5456 C.3      73      M_A    0.0000
    513 C         204.7751  147.6832    5.3364 C.3      73      M_A    0.0000
    514 O         204.0851  147.7538    6.5833 O.3      73      M_A    0.0000
    515 H         204.2904  149.7868    5.2293 H        73      M_A    0.0000
    516 H         205.3690  149.2120    3.9497 H        73      M_A    0.0000
    517 H         205.8591  147.6296    5.5101 H        73      M_A    0.0000
    518 H         204.4621  146.7875    4.7834 H        73      M_A    0.0000
    519 C         203.3738  146.5595    6.8288 C.3      74      M_A    0.0000
    520 C         201.9720  146.5769    6.2323 C.3      74      M_A    0.0000
    521 O         201.0430  146.1668    7.2347 O.3      74      M_A    0.0000
    522 H         203.3212  146.3938    7.9109 H        74      M_A    0.0000
    523 H         203.9385  145.7281    6.3920 H        74      M_A    0.0000
    524 H         201.9517  145.8704    5.3906 H        74      M_A    0.0000
    525 H         201.7077  147.5759    5.8605 H        74      M_A    0.0000
    526 C         199.8006  146.8133    7.0586 C.3      75      M_A    0.0000
    527 C         198.8703  146.6342    8.2519 C.3      75      M_A    0.0000
    528 O         197.7923  145.7820    7.8677 O.3      75      M_A    0.0000
    529 H         199.3258  146.4281    6.1491 H        75      M_A    0.0000
    530 H         199.9885  147.8825    6.9085 H        75      M_A    0.0000
    531 H         198.4841  147.6238    8.5336 H        75      M_A    0.0000
    532 H         199.4011  146.2049    9.1121 H        75      M_A    0.0000
    533 C         196.6972  145.9357    8.7451 C.3      76      M_A    0.0000
    534 C         196.8279  145.0859   10.0029 C.3      76      M_A    0.0000
    535 O         195.5217  144.8104   10.5067 O.3      76      M_A    0.0000
    536 H         195.7755  145.6791    8.2106 H        76      M_A    0.0000
    537 H         196.6327  146.9915    9.0315 H        76      M_A    0.0000
    538 H         197.4020  145.6604   10.7434 H        76      M_A    0.0000
    539 H         197.3580  144.1462    9.7977 H        76      M_A    0.0000
    540 C         195.5483  144.6650   11.9105 C.3      77      M_A    0.0000
    541 C         194.5117  143.6706   12.4183 C.3      77      M_A    0.0000
    542 O         193.4921  144.3871   13.1133 O.3      77      M_A    0.0000
    543 H         195.3876  145.6459   12.3721 H        77      M_A    0.0000
    544 H         196.5473  144.3203   12.2008 H        77      M_A    0.0000
    545 H         195.0151  142.9749   13.1043 H        77      M_A    0.0000
    546 H         194.0713  143.0951   11.5931 H        77      M_A    0.0000
    547 C         192.4454  143.5209   13.4961 C.3      78      M_A    0.0000
    548 C         191.1814  144.2692   13.9007 C.3      78      M_A    0.0000
    549 O         190.3576  143.3938   14.6693 O.3      78      M_A    0.0000
    550 H         192.7912  142.8902   14.3230 H        78      M_A    0.0000
    551 H         192.2169  142.8638   12.6494 H        78      M_A    0.0000
    552 H         190.6557  144.5698   12.9834 H        78      M_A    0.0000
    553 H         191.4185  145.1701   14.4824 H        78      M_A    0.0000
    554 C         188.9914  143.6745   14.4518 C.3      79      M_A    0.0000
    555 C         188.1598  143.5695   15.7241 C.3      79      M_A    0.0000
    556 O         187.3820  142.3748   15.6652 O.3      79      M_A    0.0000
    557 H         188.6046  142.9872   13.6908 H        79      M_A    0.0000
    558 H         188.9095  144.6921   14.0535 H        79      M_A    0.0000
    559 H         187.4982  144.4459   15.7713 H        79      M_A    0.0000
    560 H         188.7967  143.5601   16.6188 H        79      M_A    0.0000
    561 C         187.0674  141.9191   16.9636 C.3      80      M_A    0.0000
    562 C         185.6031  141.5244   17.1094 C.3      80      M_A    0.0000
    563 O         185.2735  141.4933   18.4973 O.3      80      M_A    0.0000
    564 H         187.3202  142.7036   17.6860 H        80      M_A    0.0000
    565 H         187.6964  141.0491   17.1835 H        80      M_A    0.0000
    566 H         185.4751  140.5246   16.6711 H        80      M_A    0.0000
    567 H         184.9446  142.2275   16.5820 H        80      M_A    0.0000
    568 C         183.8996  141.2249   18.6785 C.3      81      M_A    0.0000
    569 C         183.4650  141.3401   20.1343 C.3      81      M_A    0.0000
    570 O         182.3808  140.4407   20.3607 O.3      81      M_A    0.0000
    571 H         183.6809  140.2207   18.2980 H        81      M_A    0.0000
    572 H         183.3280  141.9405   18.0766 H        81      M_A    0.0000
    573 H         183.1375  142.3743   20.3107 H        81      M_A    0.0000
    574 H         184.2931  141.1110   20.8184 H        81      M_A    0.0000
    575 C         181.4548  140.9939   21.2712 C.3      82      M_A    0.0000
    576 C         181.0601  140.0190   22.3736 C.3      82      M_A    0.0000
    577 O         179.6685  140.1759   22.6465 O.3      82      M_A    0.0000
    578 H         180.5656  141.3193   20.7194 H        82      M_A    0.0000
    579 H         181.9086  141.8824   21.7246 H        82      M_A    0.0000
    580 H         181.6479  140.2628   23.2697 H        82      M_A    0.0000
    581 H         181.2722  138.9810   22.0846 H        82      M_A    0.0000
    582 C         178.8901  139.5864   21.6271 C.3      83      M_A    0.0000
    583 C         177.4499  139.3369   22.0570 C.3      83      M_A    0.0000
    584 O         177.3803  138.0707   22.7110 O.3      83      M_A    0.0000
    585 H         179.3606  138.6452   21.3208 H        83      M_A    0.0000
    586 H         178.8940  140.2576   20.7609 H        83      M_A    0.0000
    587 H         176.8223  139.3281   21.1548 H        83      M_A    0.0000
    588 H         177.0901  140.1277   22.7289 H        83      M_A    0.0000
    589 C         177.1939  138.2359   24.1004 C.3      84      M_A    0.0000
    590 C         175.8170  137.7800   24.5672 C.3      84      M_A    0.0000
    591 O         175.5554  138.3520   25.8479 O.3      84      M_A    0.0000
    592 H         177.3489  139.2901   24.3565 H        84      M_A    0.0000
    593 H         177.9603  137.6508   24.6213 H        84      M_A    0.0000
    594 H         175.8288  136.6835   24.6413 H        84      M_A    0.0000
    595 H         175.0348  138.0768   23.8557 H        84      M_A    0.0000
    596 C         174.2564  138.0181   26.2880 C.3      85      M_A    0.0000
    597 C         173.9880  138.4643   27.7199 C.3      85      M_A    0.0000
    598 O         172.8849  137.7185   28.2323 O.3      85      M_A    0.0000
    599 H         174.1189  136.9345   26.1986 H        85      M_A    0.0000
    600 H         173.5335  138.5014   25.6210 H        85      M_A    0.0000
    601 H         173.7409  139.5350   27.7019 H        85      M_A    0.0000
    602 H         174.8703  138.3168   28.3570 H        85      M_A    0.0000
    603 C         173.2772  136.3998   28.5483 C.3      86      M_A    0.0000
    604 C         172.1072  135.5272   28.9856 C.3      86      M_A    0.0000
    605 O         171.9039  135.7031   30.3868 O.3      86      M_A    0.0000
    606 H         174.0370  136.4350   29.3374 H        86      M_A    0.0000
    607 H         173.7410  135.9576   27.6594 H        86      M_A    0.0000
    608 H         172.3655  134.4803   28.7725 H        86      M_A    0.0000
    609 H         171.1906  135.7828   28.4373 H        86      M_A    0.0000
    610 C         171.7123  137.0670   30.6963 C.3      87      M_A    0.0000
    611 C         170.4627  137.3100   31.5334 C.3      87      M_A    0.0000
    612 O         169.3809  137.6279   30.6590 O.3      87      M_A    0.0000
    613 H         171.6579  137.6385   29.7627 H        87      M_A    0.0000
    614 H         172.5891  137.4192   31.2514 H        87      M_A    0.0000
    615 H         170.6628  138.1562   32.2055 H        87      M_A    0.0000
    616 H         170.2100  136.4301   32.1400 H        87      M_A    0.0000
    617 C         168.2795  136.7778   30.8977 C.3      88      M_A    0.0000
    618 C         167.1759  137.4567   31.6992 C.3      88      M_A    0.0000
    619 O         166.6283  136.5106   32.6163 O.3      88      M_A    0.0000
    620 H         168.6300  135.8817   31.4224 H        88      M_A    0.0000
    621 H         167.8754  136.4601   29.9299 H        88      M_A    0.0000
    622 H         166.3999  137.7893   30.9956 H        88      M_A    0.0000
    623 H         167.5566  138.3313   32.2434 H        88      M_A    0.0000
    624 C         165.7797  137.1497   33.5458 C.3      89      M_A    0.0000
    625 C         165.4321  136.2601   34.7329 C.3      89      M_A    0.0000
    626 O         164.0329  135.9827   34.7027 O.3      89      M_A    0.0000
    627 H         164.8652  137.4669   33.0318 H        89      M_A    0.0000
    628 H         166.2863  138.0507   33.9099 H        89      M_A    0.0000
    629 H         165.6866  136.8055   35.6527 H        89      M_A    0.0000
    630 H         166.0023  135.3218   34.7103 H        89      M_A    0.0000
    631 C         163.7043  134.9703   35.6299 C.3      90      M_A    0.0000
    632 C         162.2015  134.7516   35.7536 C.3      90      M_A    0.0000
    633 O         161.8707  134.6185   37.1351 O.3      90      M_A    0.0000
    634 H         164.1289  135.2314   36.6059 H        90      M_A    0.0000
    635 H         164.1759  134.0375   35.3006 H        90      M_A    0.0000
    636 H         161.9470  133.8273   35.2162 H        90      M_A    0.0000
    637 H         161.6382  135.5837   35.3103 H        90      M_A    0.0000
    638 C         160.4707  134.6210   37.3158 C.3      91      M_A    0.0000
    639 C         160.0592  134.2145   38.7254 C.3      91      M_A    0.0000
    640 O         158.7412  133.6701   38.6783 O.3      91      M_A    0.0000
    641 H         160.0168  133.9462   36.5812 H        91      M_A    0.0000
    642 H         160.1004  135.6320   37.1124 H        91      M_A    0.0000
    643 H         160.0710  135.1146   39.3561 H        91      M_A    0.0000
    644 H         160.7555  133.4783   39.1489 H        91      M_A    0.0000
    645 C         158.0170  134.0141   39.8401 C.3      92      M_A    0.0000
    646 C         157.3880  132.8046   40.5204 C.3      92      M_A    0.0000
    647 O         156.1514  133.2030   41.1102 O.3      92      M_A    0.0000
    648 H         157.2422  134.7417   39.5729 H        92      M_A    0.0000
    649 H         158.7041  134.5019   40.5407 H        92      M_A    0.0000
    650 H         158.0797  132.4547   41.2996 H        92      M_A    0.0000
    651 H         157.2184  131.9873   39.8068 H        92      M_A    0.0000
    652 C         155.1961  133.5006   40.1145 C.3      93      M_A    0.0000
    653 C         153.7835  133.6214   40.6725 C.3      93      M_A    0.0000
    654 O         153.2299  132.3129   40.8036 O.3      93      M_A    0.0000
    655 H         155.2320  132.7219   39.3442 H        93      M_A    0.0000
    656 H         155.4768  134.4489   39.6424 H        93      M_A    0.0000
    657 H         153.1868  134.2117   39.9629 H        93      M_A    0.0000
    658 H         153.7797  134.1308   41.6454 H        93      M_A    0.0000
    659 C         152.7937  132.0855   42.1268 C.3      94      M_A    0.0000
    660 C         153.9331  132.1306   43.1373 C.3      94      M_A    0.0000
    661 O         153.4455  131.6723   44.3974 O.3      94      M_A    0.0000
    662 H         152.2880  131.1143   42.1718 H        94      M_A    0.0000
    663 H         152.0577  132.8561   42.3825 H        94      M_A    0.0000
    664 H         154.2711  133.1730   43.2225 H        94      M_A    0.0000
    665 H         154.7799  131.5108   42.8135 H        94      M_A    0.0000
    666 C         152.0439  131.5084   44.3610 C.3      95      M_A    0.0000
    667 C         151.3924  131.7144   45.7228 C.3      95      M_A    0.0000
    668 O         150.1558  131.0031   45.7507 O.3      95      M_A    0.0000
    669 H         151.8134  130.5069   43.9803 H        95      M_A    0.0000
    670 H         151.6318  132.2365   43.6532 H        95      M_A    0.0000
    671 H         151.2092  132.7903   45.8530 H        95      M_A    0.0000
    672 H         152.0447  131.3670   46.5351 H        95      M_A    0.0000
    673 C         149.2183  131.6635   46.5739 C.3      96      M_A    0.0000
    674 C         148.6023  130.7423   47.6194 C.3      96      M_A    0.0000
    675 O         147.1868  130.9215   47.6101 O.3      96      M_A    0.0000
    676 H         148.4335  132.0953   45.9424 H        96      M_A    0.0000
    677 H         149.7293  132.4897   47.0812 H        96      M_A    0.0000
    678 H         149.0093  131.0219   48.6013 H        96      M_A    0.0000
    679 H         148.8497  129.6907   47.4218 H        96      M_A    0.0000
    680 C         146.6045  130.3586   48.7663 C.3      97      M_A    0.0000
    681 C         145.3353  129.5726   48.4621 C.3      97      M_A    0.0000
    682 O         144.5827  129.4347   49.6665 O.3      97      M_A    0.0000
    683 H         146.3891  131.1605   49.4816 H        97      M_A    0.0000
    684 H         147.3383  129.6887   49.2285 H        97      M_A    0.0000
    685 H         145.6300  128.5818   48.0886 H        97      M_A    0.0000
    686 H         144.7291  130.0726   47.6949 H        97      M_A    0.0000
    687 C         143.9154  130.6387   49.9789 C.3      98      M_A    0.0000
    688 C         143.2794  130.6162   51.3633 C.3      98      M_A    0.0000
    689 O         141.9438  130.1282   51.2454 O.3      98      M_A    0.0000
    690 H         143.1518  130.8295   49.2163 H        98      M_A    0.0000
    691 H         144.6434  131.4565   49.9327 H        98      M_A    0.0000
    692 H         143.2701  131.6449   51.7501 H        98      M_A    0.0000
    693 H         143.8511  129.9842   52.0561 H        98      M_A    0.0000
    694 C         141.3975  129.8557   52.5182 C.3      99      M_A    0.0000
    695 C         142.0632  128.6678   53.2016 C.3      99      M_A    0.0000
    696 O         141.0539  127.8712   53.8201 O.3      99      M_A    0.0000
    697 H         140.3218  129.6752   52.4115 H        99      M_A    0.0000
    698 H         141.5250  130.7463   53.1440 H        99      M_A    0.0000
    699 H         142.7534  129.0566   53.9634 H        99      M_A    0.0000
    700 H         142.6340  128.0621   52.4850 H        99      M_A    0.0000
    701 C         139.7962  128.5069   53.7384 C.3     100      M_A    0.0000
    702 C         138.8870  128.1644   54.9121 C.3     100      M_A    0.0000
    703 O         137.6223  127.7430   54.4035 O.3     100      M_A    0.0000
    704 H         139.3162  128.2242   52.7946 H       100      M_A    0.0000
    705 H         139.9602  129.5902   53.7169 H       100      M_A    0.0000
    706 H         138.7631  129.0703   55.5220 H       100      M_A    0.0000
    707 H         139.3227  127.3746   55.5386 H       100      M_A    0.0000
    708 C         136.8324  127.1830   55.4306 C.3     101      M_A    0.0000
    709 C         135.5587  127.9772   55.6921 C.3     101      M_A    0.0000
    710 O         134.9101  127.4362   56.8420 O.3     101      M_A    0.0000
    711 H         137.4323  127.1205   56.3457 H       101      M_A    0.0000
    712 H         136.5638  126.1615   55.1385 H       101      M_A    0.0000
    713 H         134.9081  127.8760   54.8121 H       101      M_A    0.0000
    714 H         135.7763  129.0422   55.8490 H       101      M_A    0.0000
    715 C         135.1049  126.0400   56.9147 C.3     102      M_A    0.0000
    716 C         133.8924  125.3055   57.4730 C.3     102      M_A    0.0000
    717 O         134.0462  125.1761   58.8856 O.3     102      M_A    0.0000
    718 H         135.9867  125.8364   57.5328 H       102      M_A    0.0000
    719 H         135.3139  125.6698   55.9046 H       102      M_A    0.0000
    720 H         133.8532  124.3107   57.0073 H       102      M_A    0.0000
    721 H         132.9605  125.8392   57.2433 H       102      M_A    0.0000
    722 C         132.8873  124.6159   59.4649 C.3     103      M_A    0.0000
    723 C         131.6774  125.5368   59.3673 C.3     103      M_A    0.0000
    724 O         130.8386  125.3117   60.4995 O.3     103      M_A    0.0000
    725 H         133.0951  124.3762   60.5139 H       103      M_A    0.0000
    726 H         132.6646  123.6763   58.9467 H       103      M_A    0.0000
    727 H         131.1352  125.2895   58.4438 H       103      M_A    0.0000
    728 H         131.9797  126.5918   59.3268 H       103      M_A    0.0000
    729 C         130.9180  123.9666   60.9203 C.3     104      M_A    0.0000
    730 C         129.5675  123.4023   61.3434 C.3     104      M_A    0.0000
    731 O         129.4075  123.6019   62.7470 O.3     104      M_A    0.0000
    732 H         131.6326  123.8954   61.7483 H       104      M_A    0.0000
    733 H         131.3110  123.3699   60.0894 H       104      M_A    0.0000
    734 H         129.5612  122.3273   61.1142 H       104      M_A    0.0000
    735 H         128.7443  123.8836   60.7986 H       104      M_A    0.0000
    736 C         128.1303  123.1748   63.1698 C.3     105      M_A    0.0000
    737 C         127.0049  124.0216   62.5885 C.3     105      M_A    0.0000
    738 O         125.9829  124.1633   63.5740 O.3     105      M_A    0.0000
    739 H         128.0927  123.1982   64.2649 H       105      M_A    0.0000
    740 H         127.9948  122.1341   62.8544 H       105      M_A    0.0000
    741 H         126.6065  123.4992   61.7074 H       105      M_A    0.0000
    742 H         127.3678  125.0105   62.2778 H       105      M_A    0.0000
    743 C         126.1574  123.2238   64.6130 C.3     106      M_A    0.0000
    744 C         124.8391  122.6390   65.1043 C.3     106      M_A    0.0000
    745 O         124.5302  123.2105   66.3747 O.3     106      M_A    0.0000
    746 H         126.6883  123.7058   65.4418 H       106      M_A    0.0000
    747 H         126.7916  122.4123   64.2387 H       106      M_A    0.0000
    748 H         124.9650  121.5517   65.2028 H       106      M_A    0.0000
    749 H         124.0245  122.8367   64.3948 H       106      M_A    0.0000
    750 C         123.2216  122.8629   66.7738 C.3     107      M_A    0.0000
    751 C         122.6180  123.8667   67.7483 C.3     107      M_A    0.0000
    752 O         121.4317  123.3048   68.3077 O.3     107      M_A    0.0000
    753 H         123.2415  121.8644   67.2251 H       107      M_A    0.0000
    754 H         122.5923  122.8107   65.8781 H       107      M_A    0.0000
    755 H         122.3724  124.7796   67.1877 H       107      M_A    0.0000
    756 H         123.3258  124.1236   68.5477 H       107      M_A    0.0000
    757 C         120.6363  124.3080   68.9022 C.3     108      M_A    0.0000
    758 C         119.7312  123.7661   70.0015 C.3     108      M_A    0.0000
    759 O         118.4645  123.4395   69.4318 O.3     108      M_A    0.0000
    760 H         120.0358  124.7925   68.1240 H       108      M_A    0.0000
    761 H         121.3027  125.0663   69.3287 H       108      M_A    0.0000
    762 H         119.6098  124.5518   70.7604 H       108      M_A    0.0000
    763 H         120.1687  122.8792   70.4792 H       108      M_A    0.0000
    764 C         117.5994  122.9050   70.4108 C.3     109      M_A    0.0000
    765 C         117.6995  121.3885   70.5189 C.3     109      M_A    0.0000
    766 O         116.5706  120.9061   71.2460 O.3     109      M_A    0.0000
    767 H         116.5705  123.1991   70.1740 H       109      M_A    0.0000
    768 H         117.8587  123.3507   71.3778 H       109      M_A    0.0000
    769 H         118.6253  121.1464   71.0596 H       109      M_A    0.0000
    770 H         117.7373  120.9183   69.5272 H       109      M_A    0.0000
    771 C         115.8048  121.9798   71.7495 C.3     110      M_A    0.0000
    772 C         115.0593  121.6211   73.0289 C.3     110      M_A    0.0000
    773 O         113.7177  121.2700   72.6935 O.3     110      M_A    0.0000
    774 H         115.0964  122.3029   70.9782 H       110      M_A    0.0000
    775 H         116.4811  122.8180   71.9522 H       110      M_A    0.0000
    776 H         115.0635  122.5037   73.6838 H       110      M_A    0.0000
    777 H         115.5456  120.7891   73.5555 H       110      M_A    0.0000
    778 C         113.0763  120.6478   73.7863 C.3     111      M_A    0.0000
    779 C         112.2155  119.4630   73.3660 C.3     111      M_A    0.0000
    780 O         111.2768  119.1880   74.4048 O.3     111      M_A    0.0000
    781 H         112.4645  121.3917   74.3093 H       111      M_A    0.0000
    782 H         113.8468  120.3008   74.4841 H       111      M_A    0.0000
    783 H         112.8766  118.5974   73.2191 H       111      M_A    0.0000
    784 H         111.6866  119.6664   72.4252 H       111      M_A    0.0000
    785 C         110.2393  120.1452   74.4067 C.3     112      M_A    0.0000
    786 C         108.8835  119.5420   74.7520 C.3     112      M_A    0.0000
    787 O         108.2000  119.2286   73.5393 O.3     112      M_A    0.0000
    788 H         110.1985  120.6263   73.4228 H       112      M_A    0.0000
    789 H         110.4860  120.9171   75.1444 H       112      M_A    0.0000
    790 H         108.3136  120.2897   75.3213 H       112      M_A    0.0000
    791 H         108.9923  118.6386   75.3668 H       112      M_A    0.0000
    792 C         109.0995  118.7258   72.5746 C.3     113      M_A    0.0000
    793 C         108.8543  117.2573   72.2511 C.3     113      M_A    0.0000
    794 O         110.0962  116.5588   72.3256 O.3     113      M_A    0.0000
    795 H         110.1241  118.8660   72.9376 H       113      M_A    0.0000
    796 H         108.9869  119.3177   71.6592 H       113      M_A    0.0000
    797 H         108.4505  117.1967   71.2307 H       113      M_A    0.0000
    798 H         108.1291  116.8105   72.9443 H       113      M_A    0.0000
    799 C         109.9928  115.2899   71.7158 C.3     114      M_A    0.0000
    800 C         108.7534  114.5233   72.1602 C.3     114      M_A    0.0000
    801 O         109.0078  113.1256   72.0275 O.3     114      M_A    0.0000
    802 H         110.8956  114.7119   71.9439 H       114      M_A    0.0000
    803 H         109.9550  115.4332   70.6300 H       114      M_A    0.0000
    804 H         107.9197  114.8165   71.5068 H       114      M_A    0.0000
    805 H         108.4873  114.7604   73.1990 H       114      M_A    0.0000
    806 C         107.8167  112.4269   71.7345 C.3     115      M_A    0.0000
    807 C         106.6231  112.9400   72.5303 C.3     115      M_A    0.0000
    808 O         105.4733  112.1728   72.1764 O.3     115      M_A    0.0000
    809 H         107.9726  111.3605   71.9338 H       115      M_A    0.0000
    810 H         107.6081  112.5383   70.6644 H       115      M_A    0.0000
    811 H         106.4660  113.9951   72.2656 H       115      M_A    0.0000
    812 H         106.8034  112.8708   73.6114 H       115      M_A    0.0000
    813 C         105.1535  112.3521   70.8133 C.3     116      M_A    0.0000
    814 C         103.6665  112.1780   70.5305 C.3     116      M_A    0.0000
    815 O         103.5027  111.1398   69.5656 O.3     116      M_A    0.0000
    816 H         105.7366  111.6423   70.2155 H       116      M_A    0.0000
    817 H         105.4577  113.3631   70.5197 H       116      M_A    0.0000
    818 H         103.2832  113.1268   70.1293 H       116      M_A    0.0000
    819 H         103.1112  111.9323   71.4456 H       116      M_A    0.0000
    820 C         102.1443  110.7724   69.4531 C.3     117      M_A    0.0000
    821 C         101.6204  110.0694   70.6992 C.3     117      M_A    0.0000
    822 O         100.3319  109.5283   70.4116 O.3     117      M_A    0.0000
    823 H         102.0229  110.1262   68.5764 H       117      M_A    0.0000
    824 H         101.5563  111.6810   69.2808 H       117      M_A    0.0000
    825 H         101.5433  110.8147   71.5032 H       117      M_A    0.0000
    826 H         102.3003  109.2702   71.0234 H       117      M_A    0.0000
    827 C          99.9691  109.7873   69.0722 C.3     118      M_A    0.0000
    828 C          98.4734  110.0238   68.9034 C.3     118      M_A    0.0000
    829 O          98.0618  109.4755   67.6522 O.3     118      M_A    0.0000
    830 H         100.2905  108.9456   68.4482 H       118      M_A    0.0000
    831 H         100.5125  110.6775   68.7356 H       118      M_A    0.0000
    832 H          98.2973  111.1087   68.9137 H       118      M_A    0.0000
    833 H          97.9011  109.5661   69.7214 H       118      M_A    0.0000
    834 C          98.7110  110.1292   66.5827 C.3     119      M_A    0.0000
    835 C          97.7834  111.0615   65.8134 C.3     119      M_A    0.0000
    836 O          97.3377  110.3930   64.6343 O.3     119      M_A    0.0000
    837 H          99.1313  109.3746   65.9081 H       119      M_A    0.0000
    838 H          99.5447  110.7111   66.9917 H       119      M_A    0.0000
    839 H          98.3539  111.9608   65.5418 H       119      M_A    0.0000
    840 H          96.9216  111.3619   66.4242 H       119      M_A    0.0000
    841 C          96.4867  111.2279   63.8784 C.3     120      M_A    0.0000
    842 C          95.2607  110.4937   63.3499 C.3     120      M_A    0.0000
    843 O          94.7595  111.1981   62.2148 O.3     120      M_A    0.0000
    844 H          97.0573  111.6565   63.0466 H       120      M_A    0.0000
    845 H          96.1601  112.0549   64.5189 H       120      M_A    0.0000
    846 H          94.5036  110.4787   64.1464 H       120      M_A    0.0000
    847 H          95.5024  109.4586   63.0737 H       120      M_A    0.0000
    848 C          93.6394  110.5342   61.6697 C.3     121      M_A    0.0000
    849 C          93.5299  110.7085   60.1601 C.3     121      M_A    0.0000
    850 O          92.5635  111.7215   59.8853 O.3     121      M_A    0.0000
    851 H          92.7326  110.9076   62.1591 H       121      M_A    0.0000
    852 H          93.7270  109.4667   61.9014 H       121      M_A    0.0000
    853 H          93.2027  109.7514   59.7300 H       121      M_A    0.0000
    854 H          94.4973  110.9813   59.7175 H       121      M_A    0.0000
    855 C          92.1289  111.6465   58.5443 C.3     122      M_A    0.0000
    856 C          93.2853  111.5872   57.5540 C.3     122      M_A    0.0000
    857 O          93.4813  112.8878   57.0010 O.3     122      M_A    0.0000
    858 H          91.4919  112.5119   58.3287 H       122      M_A    0.0000
    859 H          91.5152  110.7455   58.4324 H       122      M_A    0.0000
    860 H          93.0159  110.8781   56.7586 H       122      M_A    0.0000
    861 H          94.2086  111.2407   58.0373 H       122      M_A    0.0000
    862 C          94.5809  112.8935   56.1158 C.3     123      M_A    0.0000
    863 C          94.9956  114.3001   55.7024 C.3     123      M_A    0.0000
    864 O          94.9002  114.4067   54.2828 O.3     123      M_A    0.0000
    865 H          94.3267  112.2998   55.2303 H       123      M_A    0.0000
    866 H          95.4249  112.4033   56.6140 H       123      M_A    0.0000
    867 H          96.0359  114.4555   56.0212 H       123      M_A    0.0000
    868 H          94.3632  115.0604   56.1802 H       123      M_A    0.0000
    869 C          95.7355  115.4381   53.8022 C.3     124      M_A    0.0000
    870 C          95.2293  116.0460   52.5000 C.3     124      M_A    0.0000
    871 O          96.0450  115.5755   51.4280 O.3     124      M_A    0.0000
    872 H          96.7474  115.0402   53.6644 H       124      M_A    0.0000
    873 H          95.7874  116.2217   54.5666 H       124      M_A    0.0000
    874 H          95.3100  117.1391   52.5809 H       124      M_A    0.0000
    875 H          94.1789  115.7826   52.3172 H       124      M_A    0.0000
    876 C          95.7297  114.2365   51.1112 C.3     125      M_A    0.0000
    877 C          96.9669  113.3897   50.8394 C.3     125      M_A    0.0000
    878 O          97.1335  113.2629   49.4280 O.3     125      M_A    0.0000
    879 H          95.0658  114.2249   50.2393 H       125      M_A    0.0000
    880 H          95.1789  113.8050   51.9546 H       125      M_A    0.0000
    881 H          96.8068  112.3996   51.2887 H       125      M_A    0.0000
    882 H          97.8647  113.8383   51.2854 H       125      M_A    0.0000
    883 C          98.4248  112.7837   49.1187 C.3     126      M_A    0.0000
    884 C          99.5165  113.8060   49.4092 C.3     126      M_A    0.0000
    885 O         100.7020  113.4190   48.7158 O.3     126      M_A    0.0000
    886 H          98.4518  112.4929   48.0624 H       126      M_A    0.0000
    887 H          98.6089  111.8838   49.7164 H       126      M_A    0.0000
    888 H          99.6999  113.8092   50.4928 H       126      M_A    0.0000
    889 H          99.2123  114.8150   49.1001 H       126      M_A    0.0000
    890 C         101.6205  114.4895   48.6611 C.3     127      M_A    0.0000
    891 C         102.8547  114.1633   47.8294 C.3     127      M_A    0.0000
    892 O         103.8993  115.0669   48.1869 O.3     127      M_A    0.0000
    893 H         101.9140  114.7579   49.6823 H       127      M_A    0.0000
    894 H         101.1120  115.3556   48.2226 H       127      M_A    0.0000
    895 H         102.5942  114.2916   46.7694 H       127      M_A    0.0000
    896 H         103.1823  113.1273   47.9889 H       127      M_A    0.0000
    897 C         105.1545  114.5653   47.7801 C.3     128      M_A    0.0000
    898 C         106.2704  115.5939   47.9148 C.3     128      M_A    0.0000
    899 O         106.7855  115.8831   46.6160 O.3     128      M_A    0.0000
    900 H         105.0804  114.2232   46.7416 H       128      M_A    0.0000
    901 H         105.3935  113.6945   48.4010 H       128      M_A    0.0000
    902 H         107.0602  115.1587   48.5432 H       128      M_A    0.0000
    903 H         105.9096  116.5158   48.3903 H       128      M_A    0.0000
    904 C         107.8681  116.7852   46.6975 C.3     129      M_A    0.0000
    905 C         107.4247  118.2420   46.6448 C.3     129      M_A    0.0000
    906 O         108.3034  118.9566   45.7770 O.3     129      M_A    0.0000
    907 H         108.5681  116.5744   45.8811 H       129      M_A    0.0000
    908 H         108.3943  116.6052   47.6418 H       129      M_A    0.0000
    909 H         107.4860  118.6532   47.6622 H       129      M_A    0.0000
    910 H         106.3894  118.3325   46.2898 H       129      M_A    0.0000
    911 C         107.6394  120.0539   45.1873 C.3     130      M_A    0.0000
    912 C         108.3498  120.5711   43.9426 C.3     130      M_A    0.0000
    913 O         108.9307  121.8397   44.2412 O.3     130      M_A    0.0000
    914 H         107.5488  120.8547   45.9299 H       130      M_A    0.0000
    915 H         106.6265  119.7361   44.9153 H       130      M_A    0.0000
    916 H         107.6020  120.6795   43.1445 H       130      M_A    0.0000
    917 H         109.1264  119.8717   43.6054 H       130      M_A    0.0000
    918 C         107.9307  122.8257   44.3838 C.3     131      M_A    0.0000
    919 C         107.9037  123.8083   43.2197 C.3     131      M_A    0.0000
    920 O         108.7973  124.8829   43.5072 O.3     131      M_A    0.0000
    921 H         108.0924  123.3616   45.3260 H       131      M_A    0.0000
    922 H         106.9595  122.3223   44.4498 H       131      M_A    0.0000
    923 H         106.8778  124.1899   43.1204 H       131      M_A    0.0000
    924 H         108.1914  123.3214   42.2782 H       131      M_A    0.0000
    925 C         108.9954  125.6870   42.3640 C.3     132      M_A    0.0000
    926 C         110.3639  126.3566   42.3463 C.3     132      M_A    0.0000
    927 O         110.1902  127.7455   42.0694 O.3     132      M_A    0.0000
    928 H         108.2045  126.4444   42.3214 H       132      M_A    0.0000
    929 H         108.8961  125.0519   41.4765 H       132      M_A    0.0000
    930 H         110.9618  125.8877   41.5521 H       132      M_A    0.0000
    931 H         110.8856  126.2263   43.3039 H       132      M_A    0.0000
    932 C         111.2216  128.5056   42.6619 C.3     133      M_A    0.0000
    933 C         110.8430  129.9704   42.8425 C.3     133      M_A    0.0000
    934 O         112.0179  130.7093   43.1730 O.3     133      M_A    0.0000
    935 H         112.1233  128.4226   42.0445 H       133      M_A    0.0000
    936 H         111.4483  128.0711   43.6420 H       133      M_A    0.0000
    937 H         110.1157  130.0349   43.6640 H       133      M_A    0.0000
    938 H         110.3843  130.3802   41.9327 H       133      M_A    0.0000
    939 C         112.4596  130.3888   44.4749 C.3     134      M_A    0.0000
    940 C         113.5488  131.3299   44.9745 C.3     134      M_A    0.0000
    941 O         114.6388  130.5497   45.4632 O.3     134      M_A    0.0000
    942 H         112.8224  129.3547   44.4821 H       134      M_A    0.0000
    943 H         111.6000  130.4446   45.1522 H       134      M_A    0.0000
    944 H         113.1272  131.9366   45.7882 H       134      M_A    0.0000
    945 H         113.8943  132.0012   44.1769 H       134      M_A    0.0000
    946 C         115.7038  131.3809   45.8726 C.3     135      M_A    0.0000
    947 C         116.3316  132.1457   44.7140 C.3     135      M_A    0.0000
    948 O         117.2018  133.1449   45.2433 O.3     135      M_A    0.0000
    949 H         116.4609  130.7670   46.3735 H       135      M_A    0.0000
    950 H         115.3174  132.0971   46.6066 H       135      M_A    0.0000
    951 H         115.5223  132.6188   44.1404 H       135      M_A    0.0000
    952 H         116.8904  131.4748   44.0477 H       135      M_A    0.0000
    953 C         116.4629  134.1574   45.8926 C.3     136      M_A    0.0000
    954 C         116.8340  135.5552   45.4133 C.3     136      M_A    0.0000
    955 O         117.8990  136.0493   46.2241 O.3     136      M_A    0.0000
    956 H         116.6220  134.0749   46.9738 H       136      M_A    0.0000
    957 H         115.3985  133.9832   45.6987 H       136      M_A    0.0000
    958 H         115.9495  136.1984   45.5231 H       136      M_A    0.0000
    959 H         117.1365  135.5491   44.3576 H       136      M_A    0.0000
    960 C         118.0466  137.4435   46.0594 C.3     137      M_A    0.0000
    961 C         118.9326  137.8049   44.8738 C.3     137      M_A    0.0000
    962 O         119.9455  138.7065   45.3175 O.3     137      M_A    0.0000
    963 H         118.4591  137.8681   46.9817 H       137      M_A    0.0000
    964 H         117.0520  137.8783   45.9087 H       137      M_A    0.0000
    965 H         118.3037  138.2914   44.1150 H       137      M_A    0.0000
    966 H         119.3922  136.9113   44.4306 H       137      M_A    0.0000
    967 C         120.9617  138.8334   44.3460 C.3     138      M_A    0.0000
    968 C         121.4957  140.2561   44.2361 C.3     138      M_A    0.0000
    969 O         121.7285  140.5525   42.8600 O.3     138      M_A    0.0000
    970 H         120.5703  138.5017   43.3776 H       138      M_A    0.0000
    971 H         121.7838  138.1626   44.6200 H       138      M_A    0.0000
    972 H         122.4398  140.3093   44.7962 H       138      M_A    0.0000
    973 H         120.7910  140.9821   44.6634 H       138      M_A    0.0000
    974 C         120.5648  141.0789   42.2587 C.3     139      M_A    0.0000
    975 C         120.3867  140.6162   40.8180 C.3     139      M_A    0.0000
    976 O         119.9487  141.7238   40.0325 O.3     139      M_A    0.0000
    977 H         120.6075  142.1732   42.3008 H       139      M_A    0.0000
    978 H         119.6987  140.7569   42.8478 H       139      M_A    0.0000
    979 H         119.6250  139.8239   40.8069 H       139      M_A    0.0000
    980 H         121.3222  140.2115   40.4092 H       139      M_A    0.0000
    981 C         119.4493  141.2862   38.7868 C.3     140      M_A    0.0000
    982 C         120.2333  141.8500   37.6083 C.3     140      M_A    0.0000
    983 O         119.3132  142.4104   36.6727 O.3     140      M_A    0.0000
    984 H         118.3938  141.5702   38.7080 H       140      M_A    0.0000
    985 H         119.5023  140.1919   38.7613 H       140      M_A    0.0000
    986 H         120.7865  141.0232   37.1410 H       140      M_A    0.0000
    987 H         120.9511  142.6146   37.9342 H       140      M_A    0.0000
    988 C         119.7916  142.2637   35.3528 C.3     141      M_A    0.0000
    989 C         120.6838  143.4201   34.9189 C.3     141      M_A    0.0000
    990 O         120.1419  143.9954   33.7310 O.3     141      M_A    0.0000
    991 H         118.9365  142.1718   34.6735 H       141      M_A    0.0000
    992 H         120.3630  141.3303   35.2967 H       141      M_A    0.0000
    993 H         121.6869  143.0188   34.7175 H       141      M_A    0.0000
    994 H         120.7606  144.1830   35.7052 H       141      M_A    0.0000
    995 C         120.7853  145.2148   33.4281 C.3     142      M_A    0.0000
    996 C         120.0054  146.0583   32.4274 C.3     142      M_A    0.0000
    997 O         120.9256  146.6452   31.5084 O.3     142      M_A    0.0000
    998 H         121.7877  145.0004   33.0404 H       142      M_A    0.0000
    999 H         120.9027  145.7811   34.3590 H       142      M_A    0.0000
   1000 H         119.4778  146.8455   32.9841 H       142      M_A    0.0000
   1001 H         119.2659  145.4540   31.8851 H       142      M_A    0.0000
   1002 C         120.2411  147.2305   30.4214 C.3     143      M_A    0.0000
   1003 C         121.1038  148.2193   29.6471 C.3     143      M_A    0.0000
   1004 O         120.3097  149.3574   29.3154 O.3     143      M_A    0.0000
   1005 H         119.3401  147.7292   30.7963 H       143      M_A    0.0000
   1006 H         119.9212  146.4291   29.7459 H       143      M_A    0.0000
   1007 H         121.4498  147.7231   28.7295 H       143      M_A    0.0000
   1008 H         121.9800  148.5295   30.2321 H       143      M_A    0.0000
   1009 C         120.6849  149.8789   28.0584 C.3     144      M_A    0.0000
   1010 C         122.1324  150.3533   28.0272 C.3     144      M_A    0.0000
   1011 O         122.1523  151.7720   28.1778 O.3     144      M_A    0.0000
   1012 H         120.0118  150.7047   27.8015 H       144      M_A    0.0000
   1013 H         120.5494  149.0931   27.3067 H       144      M_A    0.0000
   1014 H         122.5612  150.0734   27.0546 H       144      M_A    0.0000
   1015 H         122.7252  149.8821   28.8225 H       144      M_A    0.0000
   1016 C         123.4145  152.2943   27.8219 C.3     145      M_A    0.0000
   1017 C         124.4949  151.9703   28.8462 C.3     145      M_A    0.0000
   1018 O         125.4476  153.0324   28.8580 O.3     145      M_A    0.0000
   1019 H         123.3271  153.3796   27.6966 H       145      M_A    0.0000
   1020 H         123.7008  151.8695   26.8531 H       145      M_A    0.0000
   1021 H         124.9818  151.0331   28.5421 H       145      M_A    0.0000
   1022 H         124.0682  151.8366   29.8493 H       145      M_A    0.0000
   1023 C         126.6977  152.5768   29.3297 C.3     146      M_A    0.0000
   1024 C         126.7698  152.5284   30.8508 C.3     146      M_A    0.0000
   1025 O         128.1129  152.2397   31.2362 O.3     146      M_A    0.0000
   1026 H         127.4851  153.2292   28.9354 H       146      M_A    0.0000
   1027 H         126.8687  151.5705   28.9310 H       146      M_A    0.0000
   1028 H         126.0999  151.7292   31.1979 H       146      M_A    0.0000
   1029 H         126.4463  153.4782   31.2972 H       146      M_A    0.0000
   1030 C         128.4438  150.9020   30.9296 C.3     147      M_A    0.0000
   1031 C         129.8419  150.5198   31.3994 C.3     147      M_A    0.0000
   1032 O         130.7430  150.6403   30.2997 O.3     147      M_A    0.0000
   1033 H         128.3560  150.7538   29.8473 H       147      M_A    0.0000
   1034 H         127.7115  150.2475   31.4156 H       147      M_A    0.0000
   1035 H         129.8110  149.4774   31.7465 H       147      M_A    0.0000
   1036 H         130.1736  151.1580   32.2293 H       147      M_A    0.0000
   1037 C         132.0020  151.1076   30.7346 C.3     148      M_A    0.0000
   1038 C         133.1184  150.7961   29.7456 C.3     148      M_A    0.0000
   1039 O         134.3629  150.8027   30.4434 O.3     148      M_A    0.0000
   1040 H         132.2279  150.6629   31.7105 H       148      M_A    0.0000
   1041 H         131.9368  152.1930   30.8706 H       148      M_A    0.0000
   1042 H         133.1170  151.5785   28.9737 H       148      M_A    0.0000
   1043 H         132.9638  149.8227   29.2612 H       148      M_A    0.0000
   1044 C         135.2756  149.9075   29.8451 C.3     149      M_A    0.0000
   1045 C         136.7238  150.2181   30.2024 C.3     149      M_A    0.0000
   1046 O         137.2853  151.0298   29.1721 O.3     149      M_A    0.0000
   1047 H         135.1408  149.9371   28.7578 H       149      M_A    0.0000
   1048 H         135.0331  148.8936   30.1829 H       149      M_A    0.0000
   1049 H         137.2693  149.2663   30.2694 H       149      M_A    0.0000
   1050 H         136.7955  150.7343   31.1692 H       149      M_A    0.0000
   1051 C         138.5509  151.5218   29.5579 C.3     150      M_A    0.0000
   1052 C         138.6167  153.0440   29.5519 C.3     150      M_A    0.0000
   1053 O         139.8208  153.4474   28.9014 O.3     150      M_A    0.0000
   1054 H         139.3121  151.1088   28.8863 H       150      M_A    0.0000
   1055 H         138.7666  151.1582   30.5690 H       150      M_A    0.0000
   1056 H         138.6207  153.3885   30.5956 H       150      M_A    0.0000
   1057 H         137.7483  153.4800   29.0401 H       150      M_A    0.0000
   1058 C         139.5593  154.4527   27.9456 C.3     151      M_A    0.0000
   1059 C         140.5952  154.4858   26.8287 C.3     151      M_A    0.0000
   1060 O         141.3359  155.7013   26.9275 O.3     151      M_A    0.0000
   1061 H         139.5207  155.4234   28.4529 H       151      M_A    0.0000
   1062 H         138.5708  154.2646   27.5115 H       151      M_A    0.0000
   1063 H         140.0616  154.4487   25.8686 H       151      M_A    0.0000
   1064 H         141.2749  153.6252   26.8878 H       151      M_A    0.0000
   1065 C         141.8303  156.0890   25.6634 C.3     152      M_A    0.0000
   1066 C         143.3457  155.9681   25.5625 C.3     152      M_A    0.0000
   1067 O         143.7770  156.6091   24.3630 O.3     152      M_A    0.0000
   1068 H         141.5200  157.1206   25.4621 H       152      M_A    0.0000
   1069 H         141.3687  155.4484   24.9034 H       152      M_A    0.0000
   1070 H         143.6002  154.8994   25.5291 H       152      M_A    0.0000
   1071 H         143.8420  156.4216   26.4309 H       152      M_A    0.0000
   1072 C         145.1823  156.7411   24.3449 C.3     153      M_A    0.0000
   1073 C         145.8058  156.2140   23.0584 C.3     153      M_A    0.0000
   1074 O         146.8115  155.2595   23.3950 O.3     153      M_A    0.0000
   1075 H         145.5996  156.2132   25.2100 H       153      M_A    0.0000
   1076 H         145.4285  157.8034   24.4528 H       153      M_A    0.0000
   1077 H         146.2575  157.0631   22.5266 H       153      M_A    0.0000
   1078 H         145.0510  155.7518   22.4081 H       153      M_A    0.0000
   1079 C         147.2450  154.5643   22.2454 C.3     154      M_A    0.0000
   1080 C         148.7045  154.1359   22.3329 C.3     154      M_A    0.0000
   1081 O         149.2164  153.9826   21.0099 O.3     154      M_A    0.0000
   1082 H         147.0908  155.2007   21.3666 H       154      M_A    0.0000
   1083 H         146.6172  153.6741   22.1258 H       154      M_A    0.0000
   1084 H         148.7456  153.1750   22.8647 H       154      M_A    0.0000
   1085 H         149.3048  154.8708   22.8858 H       154      M_A    0.0000
   1086 C         148.7312  155.0041   20.1652 C.3     155      M_A    0.0000
   1087 C         149.1457  154.8115   18.7117 C.3     155      M_A    0.0000
   1088 O         150.2627  155.6562   18.4387 O.3     155      M_A    0.0000
   1089 H         149.0909  155.9711   20.5348 H       155      M_A    0.0000
   1090 H         147.6371  155.0101   20.2276 H       155      M_A    0.0000
   1091 H         148.2960  155.0958   18.0752 H       155      M_A    0.0000
   1092 H         149.4061  153.7648   18.5053 H       155      M_A    0.0000
   1093 C         151.1821  155.0081   17.5859 C.3     156      M_A    0.0000
   1094 C         152.5770  155.6174   17.6536 C.3     156      M_A    0.0000
   1095 O         152.9874  155.9688   16.3330 O.3     156      M_A    0.0000
   1096 H         150.8026  155.0483   16.5585 H       156      M_A    0.0000
   1097 H         151.2375  153.9536   17.8791 H       156      M_A    0.0000
   1098 H         153.2583  154.8620   18.0697 H       156      M_A    0.0000
   1099 H         152.5954  156.5038   18.3017 H       156      M_A    0.0000
   1100 C         153.9627  156.9887   16.3680 C.3     157      M_A    0.0000
   1101 C         155.3352  156.5055   15.9162 C.3     157      M_A    0.0000
   1102 O         156.3339  157.2241   16.6387 O.3     157      M_A    0.0000
   1103 H         154.0204  157.3898   17.3862 H       157      M_A    0.0000
   1104 H         153.6341  157.8002   15.7088 H       157      M_A    0.0000
   1105 H         155.4306  156.7096   14.8405 H       157      M_A    0.0000
   1106 H         155.4541  155.4264   16.0821 H       157      M_A    0.0000
   1107 C         157.6066  156.6465   16.4401 C.3     158      M_A    0.0000
   1108 C         158.6054  157.0386   17.5218 C.3     158      M_A    0.0000
   1109 O         159.6853  157.7450   16.9130 O.3     158      M_A    0.0000
   1110 H         157.9817  156.9445   15.4545 H       158      M_A    0.0000
   1111 H         157.4919  155.5566   16.4369 H       158      M_A    0.0000
   1112 H         158.9773  156.1172   17.9915 H       158      M_A    0.0000
   1113 H         158.1351  157.6626   18.2935 H       158      M_A    0.0000
   1114 C         160.6322  158.1412   17.8820 C.3     159      M_A    0.0000
   1115 C         161.9935  158.4612   17.2773 C.3     159      M_A    0.0000
   1116 O         163.0091  157.9624   18.1466 O.3     159      M_A    0.0000
   1117 H         160.7292  157.3457   18.6295 H       159      M_A    0.0000
   1118 H         160.2487  159.0321   18.3921 H       159      M_A    0.0000
   1119 H         162.0784  159.5535   17.1893 H       159      M_A    0.0000
   1120 H         162.1019  158.0177   16.2785 H       159      M_A    0.0000
   1121 C         164.1263  157.5188   17.4065 C.3     160      M_A    0.0000
   1122 C         164.9099  156.4262   18.1231 C.3     160      M_A    0.0000
   1123 O         166.1642  156.2560   17.4647 O.3     160      M_A    0.0000
   1124 H         164.7774  158.3755   17.1990 H       160      M_A    0.0000
   1125 H         163.7693  157.1317   16.4455 H       160      M_A    0.0000
   1126 H         164.3270  155.4962   18.0659 H       160      M_A    0.0000
   1127 H         165.0708  156.6768   19.1802 H       160      M_A    0.0000
   1128 C         166.6918  154.9717   17.7197 C.3     161      M_A    0.0000
   1129 C         168.1680  154.8604   17.3593 C.3     161      M_A    0.0000
   1130 O         168.5332  153.4812   17.3466 O.3     161      M_A    0.0000
   1131 H         166.1100  154.2312   17.1592 H       161      M_A    0.0000
   1132 H         166.5665  154.7551   18.7866 H       161      M_A    0.0000
   1133 H         168.7466  155.3945   18.1260 H       161      M_A    0.0000
   1134 H         168.3764  155.3138   16.3810 H       161      M_A    0.0000
   1135 C         168.1599  152.8545   18.5551 C.3     162      M_A    0.0000
   1136 C         169.0141  151.6336   18.8726 C.3     162      M_A    0.0000
   1137 O         168.3709  150.4750   18.3437 O.3     162      M_A    0.0000
   1138 H         167.1031  152.5703   18.4958 H       162      M_A    0.0000
   1139 H         168.2631  153.5844   19.3661 H       162      M_A    0.0000
   1140 H         169.0964  151.5509   19.9655 H       162      M_A    0.0000
   1141 H         170.0229  151.7301   18.4494 H       162      M_A    0.0000
   1142 C         169.0587  149.3033   18.7266 C.3     163      M_A    0.0000
   1143 C         170.5036  149.2854   18.2436 C.3     163      M_A    0.0000
   1144 O         170.7476  148.0480   17.5762 O.3     163      M_A    0.0000
   1145 H         168.5200  148.4321   18.3370 H       163      M_A    0.0000
   1146 H         169.0462  149.2403   19.8206 H       163      M_A    0.0000
   1147 H         171.1573  149.3726   19.1228 H       163      M_A    0.0000
   1148 H         170.7096  150.1251   17.5664 H       163      M_A    0.0000
   1149 C         172.0645  147.6012   17.8185 C.3     164      M_A    0.0000
   1150 C         172.7448  147.0683   16.5637 C.3     164      M_A    0.0000
   1151 O         173.8652  146.2749   16.9524 O.3     164      M_A    0.0000
   1152 H         172.0394  146.8254   18.5922 H       164      M_A    0.0000
   1153 H         172.6458  148.4434   18.2106 H       164      M_A    0.0000
   1154 H         173.0826  147.9283   15.9686 H       164      M_A    0.0000
   1155 H         172.0524  146.4698   15.9567 H       164      M_A    0.0000
   1156 C         174.4454  145.6462   15.8296 C.3     165      M_A    0.0000
   1157 C         175.9428  145.9049   15.7194 C.3     165      M_A    0.0000
   1158 O         176.1508  147.0360   14.8748 O.3     165      M_A    0.0000
   1159 H         173.9349  145.9944   14.9245 H       165      M_A    0.0000
   1160 H         174.2738  144.5671   15.9140 H       165      M_A    0.0000
   1161 H         176.4101  145.0146   15.2757 H       165      M_A    0.0000
   1162 H         176.3916  146.0842   16.7056 H       165      M_A    0.0000
   1163 C         177.3713  147.6734   15.1854 C.3     166      M_A    0.0000
   1164 C         177.3339  148.3927   16.5280 C.3     166      M_A    0.0000
   1165 O         178.4951  149.2142   16.6396 O.3     166      M_A    0.0000
   1166 H         177.6158  148.3811   14.3851 H       166      M_A    0.0000
   1167 H         178.1595  146.9124   15.2089 H       166      M_A    0.0000
   1168 H         177.3348  147.6322   17.3215 H       166      M_A    0.0000
   1169 H         176.4283  149.0058   16.6284 H       166      M_A    0.0000
   1170 C         179.6493  148.5036   16.2450 C.3     167      M_A    0.0000
   1171 C         180.8728  149.4008   16.1048 C.3     167      M_A    0.0000
   1172 O         181.8546  148.7174   15.3272 O.3     167      M_A    0.0000
   1173 H         179.4451  147.9935   15.2967 H       167      M_A    0.0000
   1174 H         179.8535  147.7351   16.9990 H       167      M_A    0.0000
   1175 H         181.2648  149.6012   17.1119 H       167      M_A    0.0000
   1176 H         180.6154  150.3570   15.6299 H       167      M_A    0.0000
   1177 C         182.8352  149.6178   14.8577 C.3     168      M_A    0.0000
   1178 C         183.7892  148.9785   13.8565 C.3     168      M_A    0.0000
   1179 O         185.0093  148.6618   14.5250 O.3     168      M_A    0.0000
   1180 H         183.3950  150.0110   15.7139 H       168      M_A    0.0000
   1181 H         182.3252  150.4609   14.3781 H       168      M_A    0.0000
   1182 H         183.9787  149.7060   13.0548 H       168      M_A    0.0000
   1183 H         183.3562  148.0713   13.4142 H       168      M_A    0.0000
   1184 C         186.0739  148.5670   13.6030 C.3     169      M_A    0.0000
   1185 C         185.8962  147.4201   12.6158 C.3     169      M_A    0.0000
   1186 O         187.1552  146.7737   12.4339 O.3     169      M_A    0.0000
   1187 H         187.0126  148.4467   14.1557 H       169      M_A    0.0000
   1188 H         186.1328  149.5105   13.0487 H       169      M_A    0.0000
   1189 H         185.5504  147.8428   11.6620 H       169      M_A    0.0000
   1190 H         185.1501  146.6973   12.9722 H       169      M_A    0.0000
   1191 C         187.1277  145.9380   11.2966 C.3     170      M_A    0.0000
   1192 C         188.4116  145.1355   11.1257 C.3     170      M_A    0.0000
   1193 O         188.8782  145.2984    9.7872 O.3     170      M_A    0.0000
   1194 H         186.9467  146.5535   10.4081 H       170      M_A    0.0000
   1195 H         186.2842  145.2461   11.3996 H       170      M_A    0.0000
   1196 H         188.1797  144.0782   11.3160 H       170      M_A    0.0000
   1197 H         189.1840  145.4603   11.8356 H       170      M_A    0.0000
   1198 C         189.9247  144.3927    9.5095 C.3     171      M_A    0.0000
   1199 C         191.0696  144.4927   10.5098 C.3     171      M_A    0.0000
   1200 O         191.8761  145.6199   10.1710 O.3     171      M_A    0.0000
   1201 H         190.2938  144.5773    8.4942 H       171      M_A    0.0000
   1202 H         189.5149  143.3767    9.5349 H       171      M_A    0.0000
   1203 H         191.6645  143.5712   10.4392 H       171      M_A    0.0000
   1204 H         190.6956  144.5929   11.5375 H       171      M_A    0.0000
   1205 C         191.7701  145.9142    8.7945 C.3     172      M_A    0.0000
   1206 C         192.3078  144.7954    7.9110 C.3     172      M_A    0.0000
   1207 O         193.6693  145.0788    7.5917 O.3     172      M_A    0.0000
   1208 H         192.3061  146.8477    8.5888 H       172      M_A    0.0000
   1209 H         190.7125  146.0790    8.5594 H       172      M_A    0.0000
   1210 H         191.7050  144.7678    6.9924 H       172      M_A    0.0000
   1211 H         192.2337  143.8202    8.4107 H       172      M_A    0.0000
   1212 C         194.1295  144.2256    6.5656 C.3     173      M_A    0.0000
   1213 C         194.3725  142.8016    7.0499 C.3     173      M_A    0.0000
   1214 O         195.7302  142.4531    6.7834 O.3     173      M_A    0.0000
   1215 H         195.0510  144.6428    6.1437 H       173      M_A    0.0000
   1216 H         193.3766  144.2094    5.7695 H       173      M_A    0.0000
   1217 H         193.6982  142.1340    6.4953 H       173      M_A    0.0000
   1218 H         194.1623  142.7026    8.1232 H       173      M_A    0.0000
   1219 C         195.8481  141.0720    6.5164 C.3     174      M_A    0.0000
   1220 C         196.9433  140.4054    7.3396 C.3     174      M_A    0.0000
   1221 O         198.1538  140.4156    6.5843 O.3     174      M_A    0.0000
   1222 H         196.0426  140.9326    5.4469 H       174      M_A    0.0000
   1223 H         194.8882  140.5953    6.7450 H       174      M_A    0.0000
   1224 H         196.6352  139.3697    7.5404 H       174      M_A    0.0000
   1225 H         197.0934  140.9207    8.2978 H       174      M_A    0.0000
   1226 C         199.0983  139.5275    7.1427 C.3     175      M_A    0.0000
   1227 C         199.2439  139.6956    8.6500 C.3     175      M_A    0.0000
   1228 O         200.2871  140.6345    8.9070 O.3     175      M_A    0.0000
   1229 H         200.0653  139.6826    6.6508 H       175      M_A    0.0000
   1230 H         198.7754  138.5029    6.9263 H       175      M_A    0.0000
   1231 H         199.5057  138.7176    9.0776 H       175      M_A    0.0000
   1232 H         198.3065  140.0404    9.1066 H       175      M_A    0.0000
   1233 C         199.8510  141.9506    8.6419 C.3     176      M_A    0.0000
   1234 C         200.8001  143.0069    9.1940 C.3     176      M_A    0.0000
   1235 O         200.6353  143.0751   10.6097 O.3     176      M_A    0.0000
   1236 H         198.8495  142.0848    9.0662 H       176      M_A    0.0000
   1237 H         199.7714  142.0734    7.5559 H       176      M_A    0.0000
   1238 H         200.5369  143.9720    8.7388 H       176      M_A    0.0000
   1239 H         201.8447  142.7742    8.9477 H       176      M_A    0.0000
   1240 C         201.8800  142.9518   11.2639 C.3     177      M_A    0.0000
   1241 C         202.5290  141.5914   11.0412 C.3     177      M_A    0.0000
   1242 O         203.1398  141.1708   12.2601 O.3     177      M_A    0.0000
   1243 H         201.7369  143.1304   12.3357 H       177      M_A    0.0000
   1244 H         202.5469  143.7333   10.8825 H       177      M_A    0.0000
   1245 H         203.2922  141.7027   10.2581 H       177      M_A    0.0000
   1246 H         201.7927  140.8458   10.7124 H       177      M_A    0.0000
   1247 C         202.6170  139.9278   12.6777 C.3     178      M_A    0.0000
   1248 C         202.7596  139.7043   14.1781 C.3     178      M_A    0.0000
   1249 O         202.8718  138.3032   14.4233 O.3     178      M_A    0.0000
   1250 H         203.1234  139.1268   12.1273 H       178      M_A    0.0000
   1251 H         201.5548  139.8952   12.4103 H       178      M_A    0.0000
   1252 H         201.8589  140.0999   14.6681 H       178      M_A    0.0000
   1253 H         203.6378  140.2279   14.5790 H       178      M_A    0.0000
   1254 C         202.2630  137.9606   15.6500 C.3     179      M_A    0.0000
   1255 C         202.5584  136.5270   16.0728 C.3     179      M_A    0.0000
   1256 O         201.4639  136.0445   16.8506 O.3     179      M_A    0.0000
   1257 H         201.1811  138.1131   15.5640 H       179      M_A    0.0000
   1258 H         202.6353  138.6451   16.4206 H       179      M_A    0.0000
   1259 H         203.4753  136.5332   16.6788 H       179      M_A    0.0000
   1260 H         202.7162  135.8773   15.2015 H       179      M_A    0.0000
   1261 C         200.3596  135.7419   16.0250 C.3     180      M_A    0.0000
   1262 C         199.0781  135.5148   16.8172 C.3     180      M_A    0.0000
   1263 O         198.7837  134.1186   16.8207 O.3     180      M_A    0.0000
   1264 H         200.5959  134.8542   15.4273 H       180      M_A    0.0000
   1265 H         200.2092  136.5784   15.3331 H       180      M_A    0.0000
   1266 H         198.2685  136.0676   16.3202 H       180      M_A    0.0000
   1267 H         199.1744  135.8816   17.8478 H       180      M_A    0.0000
   1268 C         197.4245  133.8957   17.1294 C.3     181      M_A    0.0000
   1269 C         197.2368  132.9380   18.2995 C.3     181      M_A    0.0000
   1270 O         196.3839  131.8717   17.8858 O.3     181      M_A    0.0000
   1271 H         196.9174  133.5070   16.2389 H       181      M_A    0.0000
   1272 H         196.9668  134.8596   17.3788 H       181      M_A    0.0000
   1273 H         196.7684  133.4951   19.1231 H       181      M_A    0.0000
   1274 H         198.1985  132.5375   18.6470 H       181      M_A    0.0000
   1275 C         196.1622  130.9688   18.9480 C.3     182      M_A    0.0000
   1276 C         195.7121  129.5948   18.4673 C.3     182      M_A    0.0000
   1277 O         194.5463  129.2141   19.1966 O.3     182      M_A    0.0000
   1278 H         195.4137  131.3950   19.6257 H       182      M_A    0.0000
   1279 H         197.0974  130.8631   19.5092 H       182      M_A    0.0000
   1280 H         196.5261  128.8826   18.6629 H       182      M_A    0.0000
   1281 H         195.4978  129.5980   17.3902 H       182      M_A    0.0000
   1282 C         194.2054  127.8710   18.9275 C.3     183      M_A    0.0000
   1283 C         192.9832  127.7439   18.0267 C.3     183      M_A    0.0000
   1284 O         191.8802  127.2950   18.8126 O.3     183      M_A    0.0000
   1285 H         194.0297  127.3523   19.8768 H       183      M_A    0.0000
   1286 H         195.0612  127.3910   18.4395 H       183      M_A    0.0000
   1287 H         193.2119  127.0057   17.2452 H       183      M_A    0.0000
   1288 H         192.7384  128.7010   17.5469 H       183      M_A    0.0000
   1289 C         191.0035  126.5052   18.0379 C.3     184      M_A    0.0000
   1290 C         189.8838  127.3202   17.4028 C.3     184      M_A    0.0000
   1291 O         188.6597  126.6001   17.5390 O.3     184      M_A    0.0000
   1292 H         190.5829  125.7162   18.6716 H       184      M_A    0.0000
   1293 H         191.5869  126.0209   17.2466 H       184      M_A    0.0000
   1294 H         190.1230  127.4554   16.3386 H       184      M_A    0.0000
   1295 H         189.7929  128.3090   17.8720 H       184      M_A    0.0000
   1296 C         187.6864  127.0959   16.6448 C.3     185      M_A    0.0000
   1297 C         186.2727  126.6669   17.0176 C.3     185      M_A    0.0000
   1298 O         185.9349  125.5020   16.2662 O.3     185      M_A    0.0000
   1299 H         187.9290  126.7554   15.6318 H       185      M_A    0.0000
   1300 H         187.7415  128.1903   16.6502 H       185      M_A    0.0000
   1301 H         185.5894  127.4891   16.7625 H       185      M_A    0.0000
   1302 H         186.1880  126.4588   18.0926 H       185      M_A    0.0000
   1303 C         184.5804  125.1564   16.4627 C.3     186      M_A    0.0000
   1304 C         184.4106  123.9090   17.3210 C.3     186      M_A    0.0000
   1305 O         183.4015  123.0861   16.7377 O.3     186      M_A    0.0000
   1306 H         184.1062  125.0093   15.4857 H       186      M_A    0.0000
   1307 H         184.0790  125.9989   16.9524 H       186      M_A    0.0000
   1308 H         184.1003  124.2274   18.3262 H       186      M_A    0.0000
   1309 H         185.3517  123.3489   17.4035 H       186      M_A    0.0000
   1310 C         182.6963  122.3782   17.7348 C.3     187      M_A    0.0000
   1311 C         182.4195  120.9317   17.3443 C.3     187      M_A    0.0000
   1312 O         181.1363  120.5601   17.8454 O.3     187      M_A    0.0000
   1313 H         181.7549  122.8997   17.9417 H       187      M_A    0.0000
   1314 H         183.2937  122.3930   18.6534 H       187      M_A    0.0000
   1315 H         183.1967  120.3018   17.7995 H       187      M_A    0.0000
   1316 H         182.4510  120.7983   16.2547 H       187      M_A    0.0000
   1317 C         180.1114  121.0605   17.0137 C.3     188      M_A    0.0000
   1318 C         178.7489  121.0620   17.6957 C.3     188      M_A    0.0000
   1319 O         177.9376  120.0511   17.0993 O.3     188      M_A    0.0000
   1320 H         180.0736  120.4609   16.0971 H       188      M_A    0.0000
   1321 H         180.3705  122.0867   16.7295 H       188      M_A    0.0000
   1322 H         178.2920  122.0495   17.5407 H       188      M_A    0.0000
   1323 H         178.8416  120.8819   18.7751 H       188      M_A    0.0000
   1324 C         176.5679  120.3281   17.2984 C.3     189      M_A    0.0000
   1325 C         176.2473  120.7025   18.7401 C.3     189      M_A    0.0000
   1326 O         175.1863  119.8690   19.2042 O.3     189      M_A    0.0000
   1327 H         175.9812  119.4529   16.9968 H       189      M_A    0.0000
   1328 H         176.2870  121.1593   16.6418 H       189      M_A    0.0000
   1329 H         175.9316  121.7552   18.7561 H       189      M_A    0.0000
   1330 H         177.1265  120.5883   19.3882 H       189      M_A    0.0000
   1331 C         174.6271  120.3874   20.3921 C.3     190      M_A    0.0000
   1332 C         175.0981  119.6450   21.6365 C.3     190      M_A    0.0000
   1333 O         174.0955  118.7026   22.0139 O.3     190      M_A    0.0000
   1334 H         173.5345  120.3444   20.3183 H       190      M_A    0.0000
   1335 H         174.9137  121.4419   20.4745 H       190      M_A    0.0000
   1336 H         175.2408  120.3824   22.4389 H       190      M_A    0.0000
   1337 H         176.0511  119.1294   21.4580 H       190      M_A    0.0000
   1338 C         174.2877  117.4743   21.3452 C.3     191      M_A    0.0000
   1339 C         173.6570  116.2990   22.0816 C.3     191      M_A    0.0000
   1340 O         174.5773  115.2086   22.0761 O.3     191      M_A    0.0000
   1341 H         175.3627  117.3052   21.2156 H       191      M_A    0.0000
   1342 H         173.8407  117.5533   20.3477 H       191      M_A    0.0000
   1343 H         172.7383  116.0170   21.5484 H       191      M_A    0.0000
   1344 H         173.3971  116.5669   23.1144 H       191      M_A    0.0000
   1345 C         173.8935  113.9775   22.1727 C.3     192      M_A    0.0000
   1346 C         173.8289  113.4514   23.6011 C.3     192      M_A    0.0000
   1347 O         173.6411  112.0376   23.5599 O.3     192      M_A    0.0000
   1348 H         174.3868  113.2456   21.5231 H       192      M_A    0.0000
   1349 H         172.8738  114.1212   21.7977 H       192      M_A    0.0000
   1350 H         172.9745  113.9288   24.1011 H       192      M_A    0.0000
   1351 H         174.7437  113.6933   24.1584 H       192      M_A    0.0000
   1352 C         173.8209  111.4724   24.8408 C.3     193      M_A    0.0000
   1353 C         175.2671  111.5399   25.3155 C.3     193      M_A    0.0000
   1354 O         175.3067  111.2298   26.7076 O.3     193      M_A    0.0000
   1355 H         173.4788  110.4314   24.8207 H       193      M_A    0.0000
   1356 H         173.1861  112.0175   25.5485 H       193      M_A    0.0000
   1357 H         175.6325  112.5629   25.1485 H       193      M_A    0.0000
   1358 H         175.9048  110.8422   24.7563 H       193      M_A    0.0000
   1359 C         174.7467  112.2784   27.4689 C.3     194      M_A    0.0000
   1360 C         175.6006  113.5401   27.4494 C.3     194      M_A    0.0000
   1361 O         174.7652  114.6624   27.7293 O.3     194      M_A    0.0000
   1362 H         174.6072  111.9334   28.4997 H       194      M_A    0.0000
   1363 H         173.7571  112.5095   27.0586 H       194      M_A    0.0000
   1364 H         176.0381  113.6392   26.4460 H       194      M_A    0.0000
   1365 H         176.4143  113.4840   28.1848 H       194      M_A    0.0000
   1366 C         174.4463  115.3561   26.5420 C.3     195      M_A    0.0000
   1367 C         175.6444  115.5152   25.6143 C.3     195      M_A    0.0000
   1368 O         175.8905  116.9070   25.4193 O.3     195      M_A    0.0000
   1369 H         174.0390  116.3393   26.8039 H       195      M_A    0.0000
   1370 H         173.6605  114.7988   26.0196 H       195      M_A    0.0000
   1371 H         175.3969  115.0400   24.6547 H       195      M_A    0.0000
   1372 H         176.5382  115.0294   26.0281 H       195      M_A    0.0000
   1373 C         176.4985  117.4715   26.5614 C.3     196      M_A    0.0000
   1374 C         176.7494  118.9671   26.4153 C.3     196      M_A    0.0000
   1375 O         178.0123  119.1593   25.7797 O.3     196      M_A    0.0000
   1376 H         177.4414  116.9482   26.7568 H       196      M_A    0.0000
   1377 H         175.8394  117.3013   27.4203 H       196      M_A    0.0000
   1378 H         176.7647  119.4094   27.4213 H       196      M_A    0.0000
   1379 H         175.9560  119.4507   25.8297 H       196      M_A    0.0000
   1380 C         178.0788  120.4334   25.1758 C.3     197      M_A    0.0000
   1381 C         177.5846  120.4275   23.7346 C.3     197      M_A    0.0000
   1382 O         178.1504  121.5456   23.0523 O.3     197      M_A    0.0000
   1383 H         179.1132  120.7929   25.2183 H       197      M_A    0.0000
   1384 H         177.4623  121.1237   25.7628 H       197      M_A    0.0000
   1385 H         176.4890  120.5129   23.7503 H       197      M_A    0.0000
   1386 H         177.8582  119.4958   23.2216 H       197      M_A    0.0000
   1387 C         178.3335  122.6302   23.9370 C.3     198      M_A    0.0000
   1388 C         177.9376  123.9657   23.3197 C.3     198      M_A    0.0000
   1389 O         178.9749  124.9121   23.5727 O.3     198      M_A    0.0000
   1390 H         179.3824  122.6571   24.2533 H       198      M_A    0.0000
   1391 H         177.7216  122.4525   24.8286 H       198      M_A    0.0000
   1392 H         177.0037  124.2967   23.7952 H       198      M_A    0.0000
   1393 H         177.7689  123.8724   22.2385 H       198      M_A    0.0000
   1394 C         178.5222  126.2266   23.3280 C.3     199      M_A    0.0000
   1395 C         179.5242  127.0551   22.5336 C.3     199      M_A    0.0000
   1396 O         179.3612  128.4288   22.8832 O.3     199      M_A    0.0000
   1397 H         178.3073  126.7122   24.2867 H       199      M_A    0.0000
   1398 H         177.5826  126.1669   22.7672 H       199      M_A    0.0000
   1399 H         179.3120  126.9124   21.4647 H       199      M_A    0.0000
   1400 H         180.5556  126.7357   22.7340 H       199      M_A    0.0000
   1401 C         180.4211  129.2047   22.3662 C.3     200      M_A    0.0000
   1402 C         180.3801  130.6502   22.8463 C.3     200      M_A    0.0000
   1403 O         180.6959  131.5059   21.7492 O.3     200      M_A    0.0000
   1404 H         180.3853  129.1699   21.2714 H       200      M_A    0.0000
   1405 H         181.3660  128.7490   22.6829 H       200      M_A    0.0000
   1406 H         181.1307  130.7661   23.6407 H       200      M_A    0.0000
   1407 H         179.3933  130.9088   23.2533 H       200      M_A    0.0000
   1408 C         180.0000  132.7295   21.8538 C.3     201      M_A    0.0000
   1409 C         180.8405  133.9230   21.4173 C.3     201      M_A    0.0000
   1410 O         179.9698  134.9392   20.9221 O.3     201      M_A    0.0000
   1411 H         179.6673  132.8613   22.8897 H       201      M_A    0.0000
   1412 H         179.1063  132.6710   21.2223 H       201      M_A    0.0000
   1413 H         181.5181  133.5882   20.6194 H       201      M_A    0.0000
   1414 H         181.4414  134.3148   22.2489 H       201      M_A    0.0000
   1415 C         180.5386  136.2178   21.1070 C.3     202      M_A    0.0000
   1416 C         180.9786  136.8605   19.7975 C.3     202      M_A    0.0000
   1417 O         182.4002  136.7816   19.7041 O.3     202      M_A    0.0000
   1418 H         181.3914  136.1316   21.7899 H       202      M_A    0.0000
   1419 H         179.7913  136.8595   21.5873 H       202      M_A    0.0000
   1420 H         180.6615  137.9127   19.8116 H       202      M_A    0.0000
   1421 H         180.5167  136.3646   18.9333 H       202      M_A    0.0000
   1422 C         183.0108  137.5634   20.7083 C.3     203      M_A    0.0000
   1423 C         183.6404  138.8378   20.1597 C.3     203      M_A    0.0000
   1424 O         184.7180  138.4805   19.2955 O.3     203      M_A    0.0000
   1425 H         183.7686  136.9577   21.2181 H       203      M_A    0.0000
   1426 H         182.2467  137.8309   21.4469 H       203      M_A    0.0000
   1427 H         184.0192  139.4231   21.0094 H       203      M_A    0.0000
   1428 H         182.9054  139.4443   19.6137 H       203      M_A    0.0000
   1429 C         185.8037  137.9669   20.0372 C.3     204      M_A    0.0000
   1430 C         186.4849  139.0274   20.8932 C.3     204      M_A    0.0000
   1431 O         187.3629  138.3790   21.8122 O.3     204      M_A    0.0000
   1432 H         186.5263  137.5195   19.3452 H       204      M_A    0.0000
   1433 H         185.4279  137.1690   20.6876 H       204      M_A    0.0000
   1434 H         185.7052  139.5743   21.4417 H       204      M_A    0.0000
   1435 H         187.0470  139.7402   20.2750 H       204      M_A    0.0000
   1436 C         186.7671  138.2817   23.0881 C.3     205      M_A    0.0000
   1437 C         186.0694  136.9457   23.3109 C.3     205      M_A    0.0000
   1438 O         184.7585  137.1929   23.8171 O.3     205      M_A    0.0000
   1439 H         186.0537  139.1047   23.2104 H       205      M_A    0.0000
   1440 H         187.5514  138.4062   23.8433 H       205      M_A    0.0000
   1441 H         186.6539  136.3750   24.0461 H       205      M_A    0.0000
   1442 H         186.0101  136.3652   22.3805 H       205      M_A    0.0000
   1443 C         184.5202  138.5796   23.9303 C.3     206      M_A    0.0000
   1444 C         185.8049  139.3986   23.9335 C.3     206      M_A    0.0000
   1445 O         185.6161  140.5427   24.7648 O.3     206      M_A    0.0000
   1446 H         183.9505  138.7681   24.8474 H       206      M_A    0.0000
   1447 H         183.8991  138.8913   23.0829 H       206      M_A    0.0000
   1448 H         186.0093  139.7148   22.9009 H       206      M_A    0.0000
   1449 H         186.6560  138.8065   24.2959 H       206      M_A    0.0000
   1450 C         185.5387  141.7180   23.9867 C.3     207      M_A    0.0000
   1451 C         184.6787  142.7962   24.6343 C.3     207      M_A    0.0000
   1452 O         184.0827  143.5852   23.6058 O.3     207      M_A    0.0000
   1453 H         185.1422  141.4632   22.9973 H       207      M_A    0.0000
   1454 H         186.5544  142.1054   23.8485 H       207      M_A    0.0000
   1455 H         185.3316  143.4234   25.2574 H       207      M_A    0.0000
   1456 H         183.8991  142.3572   25.2713 H       207      M_A    0.0000
   1457 C         183.0896  144.4344   24.1399 C.3     208      M_A    0.0000
   1458 C         182.2249  145.0778   23.0630 C.3     208      M_A    0.0000
   1459 O         182.8712  146.2648   22.6058 O.3     208      M_A    0.0000
   1460 H         183.5733  145.2080   24.7472 H       208      M_A    0.0000
   1461 H         182.4515  143.8406   24.8040 H       208      M_A    0.0000
   1462 H         181.2535  145.3288   23.5117 H       208      M_A    0.0000
   1463 H         182.0579  144.3923   22.2214 H       208      M_A    0.0000
   1464 C         183.0348  146.2361   21.2040 C.3     209      M_A    0.0000
   1465 C         184.3835  146.7868   20.7580 C.3     209      M_A    0.0000
   1466 O         184.1611  147.9297   19.9334 O.3     209      M_A    0.0000
   1467 H         182.2223  146.8069   20.7401 H       209      M_A    0.0000
   1468 H         182.9442  145.1965   20.8693 H       209      M_A    0.0000
   1469 H         184.8974  146.0037   20.1830 H       209      M_A    0.0000
   1470 H         185.0087  147.0598   21.6187 H       209      M_A    0.0000
   1471 C         185.3626  148.6434   19.7343 C.3     210      M_A    0.0000
   1472 C         185.2800  150.0827   20.2271 C.3     210      M_A    0.0000
   1473 O         185.8430  150.9392   19.2346 O.3     210      M_A    0.0000
   1474 H         185.6146  148.6238   18.6679 H       210      M_A    0.0000
   1475 H         186.1628  148.1253   20.2748 H       210      M_A    0.0000
   1476 H         185.8586  150.1571   21.1586 H       210      M_A    0.0000
   1477 H         184.2419  150.3764   20.4325 H       210      M_A    0.0000
   1478 C         186.4993  152.0354   19.8348 C.3     211      M_A    0.0000
   1479 C         185.8077  153.3627   19.5495 C.3     211      M_A    0.0000
   1480 O         186.8042  154.3591   19.3260 O.3     211      M_A    0.0000
   1481 H         187.5357  152.0663   19.4800 H       211      M_A    0.0000
   1482 H         186.5231  151.8697   20.9178 H       211      M_A    0.0000
   1483 H         185.2033  153.6272   20.4286 H       211      M_A    0.0000
   1484 H         185.1461  153.2896   18.6760 H       211      M_A    0.0000
   1485 C         186.3484  155.6255   19.7516 C.3     212      M_A    0.0000
   1486 C         186.5932  156.7167   18.7168 C.3     212      M_A    0.0000
   1487 O         187.1649  157.8482   19.3715 O.3     212      M_A    0.0000
   1488 H         186.8437  155.8824   20.6949 H       212      M_A    0.0000
   1489 H         185.2728  155.5544   19.9492 H       212      M_A    0.0000
   1490 H         185.6248  156.9892   18.2742 H       212      M_A    0.0000
   1491 H         187.2605  156.3677   17.9174 H       212      M_A    0.0000
   1492 C         186.9721  159.0184   18.6059 C.3     213      M_A    0.0000
   1493 C         188.2507  159.8304   18.4411 C.3     213      M_A    0.0000
   1494 O         187.9039  161.2079   18.3072 O.3     213      M_A    0.0000
   1495 H         186.1960  159.6293   19.0807 H       213      M_A    0.0000
   1496 H         186.6048  158.7241   17.6163 H       213      M_A    0.0000
   1497 H         188.7602  159.4818   17.5318 H       213      M_A    0.0000
   1498 H         188.9248  159.6936   19.2973 H       213      M_A    0.0000
   1499 C         189.0632  162.0088   18.2219 C.3     214      M_A    0.0000
   1500 C         188.7749  163.4869   18.4536 C.3     214      M_A    0.0000
   1501 O         189.5310  164.2528   17.5169 O.3     214      M_A    0.0000
   1502 H         189.5230  161.8640   17.2378 H       214      M_A    0.0000
   1503 H         189.7768  161.6606   18.9771 H       214      M_A    0.0000
   1504 H         189.0833  163.7370   19.4784 H       214      M_A    0.0000
   1505 H         187.7048  163.7079   18.3436 H       214      M_A    0.0000
   1506 C         188.9380  165.5172   17.3115 C.3     215      M_A    0.0000
   1507 C         189.9657  166.6176   17.0779 C.3     215      M_A    0.0000
   1508 O         189.4017  167.8639   17.4834 O.3     215      M_A    0.0000
   1509 H         188.3142  165.7618   18.1787 H       215      M_A    0.0000
   1510 H         188.2807  165.4499   16.4372 H       215      M_A    0.0000
   1511 H         190.1988  166.6430   16.0042 H       215      M_A    0.0000
   1512 H         190.8921  166.4248   17.6353 H       215      M_A    0.0000
   1513 C         190.0328  168.9374   16.8186 C.3     216      M_A    0.0000
   1514 C         190.5347  170.0094   17.7780 C.3     216      M_A    0.0000
   1515 O         190.7227  171.2225   17.0507 O.3     216      M_A    0.0000
   1516 H         189.3288  169.3735   16.1008 H       216      M_A    0.0000
   1517 H         190.8816  168.5385   16.2518 H       216      M_A    0.0000
   1518 H         191.4930  169.6703   18.1958 H       216      M_A    0.0000
   1519 H         189.8278  170.1709   18.6028 H       216      M_A    0.0000
   1520 C         190.8750  172.3146   17.9321 C.3     217      M_A    0.0000
   1521 C         190.6704  173.6585   17.2439 C.3     217      M_A    0.0000
   1522 O         191.9011  174.3797   17.2731 O.3     217      M_A    0.0000
   1523 H         191.8728  172.2701   18.3832 H       217      M_A    0.0000
   1524 H         190.1404  172.2098   18.7384 H       217      M_A    0.0000
   1525 H         189.8988  174.2107   17.7986 H       217      M_A    0.0000
   1526 H         190.3344  173.5296   16.2063 H       217      M_A    0.0000
   1527 C         192.0158  175.2178   16.1431 C.3     218      M_A    0.0000
   1528 C         192.6610  176.5590   16.4690 C.3     218      M_A    0.0000
   1529 O         192.0972  177.5567   15.6188 O.3     218      M_A    0.0000
   1530 H         191.0194  175.3731   15.7138 H       218      M_A    0.0000
   1531 H         192.6244  174.7006   15.3928 H       218      M_A    0.0000
   1532 H         193.7403  176.4720   16.2805 H       218      M_A    0.0000
   1533 H         192.5078  176.8315   17.5218 H       218      M_A    0.0000
   1534 C         192.1060  178.8172   16.2541 C.3     219      M_A    0.0000
   1535 C         192.5345  179.9428   15.3210 C.3     219      M_A    0.0000
   1536 O         193.2121  180.9384   16.0861 O.3     219      M_A    0.0000
   1537 H         192.7733  178.7724   17.1224 H       219      M_A    0.0000
   1538 H         191.0944  179.0228   16.6222 H       219      M_A    0.0000
   1539 H         191.6300  180.3705   14.8661 H       219      M_A    0.0000
   1540 H         193.1897  179.5722   14.5214 H       219      M_A    0.0000
   1541 C         193.3295  182.1384   15.3520 C.3     220      M_A    0.0000
   1542 C         194.5648  182.9436   15.7353 C.3     220      M_A    0.0000
   1543 O         194.3941  184.2863   15.2838 O.3     220      M_A    0.0000
   1544 H         192.4255  182.7385   15.5059 H       220      M_A    0.0000
   1545 H         193.3835  181.8851   14.2872 H       220      M_A    0.0000
   1546 H         195.4344  182.4890   15.2401 H       220      M_A    0.0000
   1547 H         194.7304  182.9300   16.8209 H       220      M_A    0.0000
   1548 C         193.4881  184.9810   16.1139 C.3     221      M_A    0.0000
   1549 C         193.1190  186.3527   15.5628 C.3     221      M_A    0.0000
   1550 O         194.0500  187.3119   16.0618 O.3     221      M_A    0.0000
   1551 H         193.9275  185.0817   17.1128 H       221      M_A    0.0000
   1552 H         192.5786  184.3772   16.2098 H       221      M_A    0.0000
   1553 H         192.1056  186.5975   15.9106 H       221      M_A    0.0000
   1554 H         193.1257  186.3578   14.4646 H       221      M_A    0.0000
   1555 C         194.8305  187.8431   15.0124 C.3     222      M_A    0.0000
   1556 C         195.3844  189.2257   15.3335 C.3     222      M_A    0.0000
   1557 O         195.4746  189.9750   14.1225 O.3     222      M_A    0.0000
   1558 H         194.2214  187.8829   14.1022 H       222      M_A    0.0000
   1559 H         195.6649  187.1579   14.8247 H       222      M_A    0.0000
   1560 H         196.3845  189.0982   15.7711 H       222      M_A    0.0000
   1561 H         194.7481  189.7538   16.0562 H       222      M_A    0.0000
   1562 C         196.5111  189.4775   13.3036 C.3     223      M_A    0.0000
   1563 C         197.8955  189.7371   13.8846 C.3     223      M_A    0.0000
   1564 O         198.4254  190.9221   13.2925 O.3     223      M_A    0.0000
   1565 H         196.4278  189.9324   12.3100 H       223      M_A    0.0000
   1566 H         196.3683  188.3972   13.1878 H       223      M_A    0.0000
   1567 H         198.5342  188.8771   13.6390 H       223      M_A    0.0000
   1568 H         197.8569  189.8470   14.9767 H       223      M_A    0.0000
   1569 C         197.4115  191.8880   13.1147 C.3     224      M_A    0.0000
   1570 C         197.8897  193.3038   13.4122 C.3     224      M_A    0.0000
   1571 O         196.7557  194.1682   13.4645 O.3     224      M_A    0.0000
   1572 H         196.5622  191.6337   13.7590 H       224      M_A    0.0000
   1573 H         197.0678  191.8372   12.0754 H       224      M_A    0.0000
   1574 H         198.5606  193.6141   12.5988 H       224      M_A    0.0000
   1575 H         198.4413  193.3488   14.3608 H       224      M_A    0.0000
   1576 C         197.1536  195.4993   13.7143 C.3     225      M_A    0.0000
   1577 C         196.6796  196.4666   12.6368 C.3     225      M_A    0.0000
   1578 O         197.3765  197.7019   12.7921 O.3     225      M_A    0.0000
   1579 H         198.2458  195.5336   13.7977 H       225      M_A    0.0000
   1580 H         196.7363  195.8066   14.6799 H       225      M_A    0.0000
   1581 H         195.6005  196.6251   12.7728 H       225      M_A    0.0000
   1582 H         196.8523  196.0611   11.6309 H       225      M_A    0.0000
   1583 C         197.1583  198.5418   11.6788 C.3     226      M_A    0.0000
   1584 C         198.1826  199.6655   11.5804 C.3     226      M_A    0.0000
   1585 O         197.5752  200.8784   12.0230 O.3     226      M_A    0.0000
   1586 H         196.1465  198.9583   11.7412 H       226      M_A    0.0000
   1587 H         197.2107  197.9293   10.7716 H       226      M_A    0.0000
   1588 H         198.4843  199.7595   10.5277 H       226      M_A    0.0000
   1589 H         199.0737  199.4487   12.1845 H       226      M_A    0.0000
   1590 C         198.0801  201.9818   11.3019 C.3     227      M_A    0.0000
   1591 C         199.1338  202.7602   12.0799 C.3     227      M_A    0.0000
   1592 O         198.9695  204.1510   11.8071 O.3     227      M_A    0.0000
   1593 H         197.2470  202.6409   11.0323 H       227      M_A    0.0000
   1594 H         198.5243  201.6096   10.3718 H       227      M_A    0.0000
   1595 H         200.1239  202.4257   11.7398 H       227      M_A    0.0000
   1596 H         199.0511  202.5762   13.1595 H       227      M_A    0.0000
   1597 C         200.1837  204.8446   12.0000 C.3     228      M_A    0.0000
   1598 C         199.9725  206.2962   12.4121 C.3     228      M_A    0.0000
   1599 O         200.6602  207.1387   11.4885 O.3     228      M_A    0.0000
   1600 H         200.7706  204.7965   11.0757 H       228      M_A    0.0000
   1601 H         200.7524  204.3295   12.7824 H       228      M_A    0.0000
   1602 H         200.3885  206.4273   13.4209 H       228      M_A    0.0000
   1603 H         198.9054  206.5546   12.4344 H       228      M_A    0.0000
   1604 C         202.0573  207.0326   11.6605 C.3     229      M_A    0.0000
   1605 C         202.5338  207.6259   12.9806 C.3     229      M_A    0.0000
   1606 O         202.9585  208.9687   12.7519 O.3     229      M_A    0.0000
   1607 H         202.5570  207.5299   10.8214 H       229      M_A    0.0000
   1608 H         202.3274  205.9711   11.6270 H       229      M_A    0.0000
   1609 H         203.3783  207.0215   13.3400 H       229      M_A    0.0000
   1610 H         201.7388  207.6066   13.7380 H       229      M_A    0.0000
   1611 C         202.2341  209.5472   11.6874 C.3     230      M_A    0.0000
   1612 C         202.3350  211.0673   11.6652 C.3     230      M_A    0.0000
   1613 O         201.1920  211.5921   10.9915 O.3     230      M_A    0.0000
   1614 H         201.1848  209.2401   11.7638 H       230      M_A    0.0000
   1615 H         202.6298  209.1484   10.7465 H       230      M_A    0.0000
   1616 H         203.2496  211.3396   11.1199 H       230      M_A    0.0000
   1617 H         202.3947  211.4793   12.6815 H       230      M_A    0.0000
   1618 C         201.2025  213.0034   11.0152 C.3     231      M_A    0.0000
   1619 C         201.2638  213.6144    9.6208 C.3     231      M_A    0.0000
   1620 O         201.8166  214.9260    9.7199 O.3     231      M_A    0.0000
   1621 H         202.0563  213.3420   11.6131 H       231      M_A    0.0000
   1622 H         200.2894  213.3449   11.5158 H       231      M_A    0.0000
   1623 H         200.2388  213.6680    9.2276 H       231      M_A    0.0000
   1624 H         201.8703  213.0007    8.9414 H       231      M_A    0.0000
   1625 C         201.7590  215.3930   11.0508 C.3     232      M_A    0.0000
   1626 C         201.7089  216.9132   11.1388 C.3     232      M_A    0.0000
   1627 O         203.0336  217.4040   11.3388 O.3     232      M_A    0.0000
   1628 H         202.6285  215.0121   11.5985 H       232      M_A    0.0000
   1629 H         200.8609  214.9774   11.5216 H       232      M_A    0.0000
   1630 H         201.0754  217.1837   11.9952 H       232      M_A    0.0000
   1631 H         201.2782  217.3527   10.2291 H       232      M_A    0.0000
   1632 C         203.0944  218.7924   11.0917 C.3     233      M_A    0.0000
   1633 C         202.9205  219.1354    9.6175 C.3     233      M_A    0.0000
   1634 O         203.4103  220.4568    9.3942 O.3     233      M_A    0.0000
   1635 H         204.0535  219.1764   11.4576 H       233      M_A    0.0000
   1636 H         202.2996  219.2786   11.6686 H       233      M_A    0.0000
   1637 H         201.8481  219.0881    9.3815 H       233      M_A    0.0000
   1638 H         203.4546  218.4226    8.9751 H       233      M_A    0.0000
   1639 C         203.4895  221.1719   10.6087 C.3     234      M_A    0.0000
   1640 C         203.3001  222.6720   10.4211 C.3     234      M_A    0.0000
   1641 O         204.5815  223.2995   10.4293 O.3     234      M_A    0.0000
   1642 H         204.4596  220.9699   11.0769 H       234      M_A    0.0000
   1643 H         202.7106  220.7940   11.2807 H       234      M_A    0.0000
   1644 H         202.6941  223.0456   11.2584 H       234      M_A    0.0000
   1645 H         202.7780  222.8949    9.4810 H       234      M_A    0.0000
   1646 C         204.5783  224.4521    9.6144 C.3     235      M_A    0.0000
   1647 C         205.6262  225.4741   10.0374 C.3     235      M_A    0.0000
   1648 O         205.3238  226.7230    9.4173 O.3     235      M_A    0.0000
   1649 H         203.5797  224.9029    9.6411 H       235      M_A    0.0000
   1650 H         204.7762  224.1428    8.5819 H       235      M_A    0.0000
   1651 H         206.6080  225.1149    9.6981 H       235      M_A    0.0000
   1652 H         205.6521  225.5924   11.1289 H       235      M_A    0.0000
   1653 C         206.0639  227.7678   10.0117 C.3     236      M_A    0.0000
   1654 C         205.5523  229.1481    9.6187 C.3     236      M_A    0.0000
   1655 O         206.6197  229.8766    9.0140 O.3     236      M_A    0.0000
   1656 H         207.1175  227.6617    9.7294 H       236      M_A    0.0000
   1657 H         205.9985  227.6583   11.1001 H       236      M_A    0.0000
   1658 H         205.2190  229.6602   10.5323 H       236      M_A    0.0000
   1659 H         204.7041  229.0778    8.9246 H       236      M_A    0.0000
   1660 C         206.1229  230.7903    8.0594 C.3     237      M_A    0.0000
   1661 C         206.9346  232.0783    8.0005 C.3     237      M_A    0.0000
   1662 O         206.0347  233.1834    7.9300 O.3     237      M_A    0.0000
   1663 H         205.0761  231.0146    8.2940 H       237      M_A    0.0000
   1664 H         206.1473  230.3064    7.0765 H       237      M_A    0.0000
   1665 H         207.5596  232.0454    7.0970 H       237      M_A    0.0000
   1666 H         207.5877  232.1803    8.8775 H       237      M_A    0.0000
   1667 C         205.4010  233.2317    6.6696 C.3     238      M_A    0.0000
   1668 C         206.3605  233.5932    5.5426 C.3     238      M_A    0.0000
   1669 O         206.3687  235.0113    5.3858 O.3     238      M_A    0.0000
   1670 H         204.5799  233.9563    6.7127 H       238      M_A    0.0000
   1671 H         204.9654  232.2468    6.4667 H       238      M_A    0.0000
   1672 H         205.9982  233.1160    4.6212 H       238      M_A    0.0000
   1673 H         207.3765  233.2318    5.7507 H       238      M_A    0.0000
   1674 C         207.1531  235.6201    6.3891 C.3     239      M_A    0.0000
   1675 C         206.5961  236.9665    6.8347 C.3     239      M_A    0.0000
   1676 O         207.6862  237.8275    7.1604 O.3     239      M_A    0.0000
   1677 H         208.1763  235.7403    6.0155 H       239      M_A    0.0000
   1678 H         207.1909  234.9452    7.2517 H       239      M_A    0.0000
   1679 H         205.9719  236.7990    7.7237 H       239      M_A    0.0000
   1680 H         205.9774  237.4229    6.0504 H       239      M_A    0.0000
   1681 C         208.7684  237.6185    6.2783 C.3     240      M_A    0.0000
   1682 C         209.8721  238.6555    6.4459 C.3     240      M_A    0.0000
   1683 O         209.5639  239.7871    5.6334 O.3     240      M_A    0.0000
   1684 H         208.3940  237.6294    5.2484 H       240      M_A    0.0000
   1685 H         209.1811  236.6220    6.4718 H       240      M_A    0.0000
   1686 H         210.8173  238.2026    6.1153 H       240      M_A    0.0000
   1687 H         209.9764  238.9628    7.4951 H       240      M_A    0.0000
   1688 C         209.8513  240.9872    6.3189 C.3     241      M_A    0.0000
   1689 C         208.6000  241.7956    6.6387 C.3     241      M_A    0.0000
   1690 O         208.9617  243.1706    6.7580 O.3     241      M_A    0.0000
   1691 H         210.5420  241.5851    5.7135 H       241      M_A    0.0000
   1692 H         210.3626  240.7338    7.2545 H       241      M_A    0.0000
   1693 H         208.1937  241.4305    7.5924 H       241      M_A    0.0000
   1694 H         207.8351  241.6739    5.8600 H       241      M_A    0.0000
   1695 C         207.8113  243.9871    6.8077 C.3     242      M_A    0.0000
   1696 C         208.0017  245.3158    6.0868 C.3     242      M_A    0.0000
   1697 O         208.5140  246.2707    7.0149 O.3     242      M_A    0.0000
   1698 H         207.5451  244.1618    7.8564 H       242      M_A    0.0000
   1699 H         206.9833  243.4419    6.3407 H       242      M_A    0.0000
   1700 H         207.0214  245.6439    5.7136 H       242      M_A    0.0000
   1701 H         208.6872  245.2140    5.2347 H       242      M_A    0.0000
   1702 C         207.9997  247.5569    6.7432 C.3     243      M_A    0.0000
   1703 C         208.8617  248.3390    5.7601 C.3     243      M_A    0.0000
   1704 O         209.5579  249.3599    6.4735 O.3     243      M_A    0.0000
   1705 H         207.9075  248.1086    7.6856 H       243      M_A    0.0000
   1706 H         206.9934  247.4425    6.3247 H       243      M_A    0.0000
   1707 H         208.1973  248.7916    5.0105 H       243      M_A    0.0000
   1708 H         209.5778  247.6837    5.2465 H       243      M_A    0.0000
   1709 C         210.5695  249.9293    5.6703 C.3     244      M_A    0.0000
   1710 C         211.1598  251.1955    6.2783 C.3     244      M_A    0.0000
   1711 O         211.3807  252.1439    5.2354 O.3     244      M_A    0.0000
   1712 H         210.1560  250.1446    4.6784 H       244      M_A    0.0000
   1713 H         211.3661  249.1874    5.5449 H       244      M_A    0.0000
   1714 H         212.1150  250.9313    6.7535 H       244      M_A    0.0000
   1715 H         210.4933  251.6221    7.0398 H       244      M_A    0.0000
   1716 C         212.2243  253.1855    5.6780 C.3     245      M_A    0.0000
   1717 C         211.6625  254.5679    5.3704 C.3     245      M_A    0.0000
   1718 O         212.7488  255.4556    5.1098 O.3     245      M_A    0.0000
   1719 H         213.2094  253.0666    5.2125 H       245      M_A    0.0000
   1720 H         212.3540  253.0848    6.7616 H       245      M_A    0.0000
   1721 H         211.1010  254.9106    6.2509 H       245      M_A    0.0000
   1722 H         210.9834  254.5410    4.5078 H       245      M_A    0.0000
   1723 C         212.3475  256.4947    4.2426 C.3     246      M_A    0.0000
   1724 C         213.2646  257.7091    4.3165 C.3     246      M_A    0.0000
   1725 O         212.4636  258.8896    4.2917 O.3     246      M_A    0.0000
   1726 H         211.3189  256.7835    4.4868 H       246      M_A    0.0000
   1727 H         212.3497  256.1062    3.2179 H       246      M_A    0.0000
   1728 H         213.9285  257.6878    3.4408 H       246      M_A    0.0000
   1729 H         213.8801  257.6911    5.2259 H       246      M_A    0.0000
   1730 C         213.2531  260.0228    3.9999 C.3     247      M_A    0.0000
   1731 C         213.1878  261.0821    5.0931 C.3     247      M_A    0.0000
   1732 O         213.6945  262.3097    4.5715 O.3     247      M_A    0.0000
   1733 H         212.9257  260.4469    3.0439 H       247      M_A    0.0000
   1734 H         214.2921  259.6954    3.8803 H       247      M_A    0.0000
   1735 H         213.8129  260.7444    5.9317 H       247      M_A    0.0000
   1736 H         212.1599  261.2221    5.4537 H       247      M_A    0.0000
   1737 C         212.9396  263.4036    5.0469 C.3     248      M_A    0.0000
   1738 C         213.0598  264.6329    4.1548 C.3     248      M_A    0.0000
   1739 O         213.9924  265.5372    4.7451 O.3     248      M_A    0.0000
   1740 H         213.2651  263.6436    6.0655 H       248      M_A    0.0000
   1741 H         211.8881  263.0990    5.0967 H       248      M_A    0.0000
   1742 H         212.0693  265.1047    4.0904 H       248      M_A    0.0000
   1743 H         213.3878  264.3620    3.1423 H       248      M_A    0.0000
   1744 C         214.5515  266.3872    3.7666 C.3     249      M_A    0.0000
   1745 C         215.3156  267.5581    4.3722 C.3     249      M_A    0.0000
   1746 O         215.3382  268.6273    3.4277 O.3     249      M_A    0.0000
   1747 H         213.7497  266.7559    3.1168 H       249      M_A    0.0000
   1748 H         215.2354  265.7951    3.1481 H       249      M_A    0.0000
   1749 H         216.3405  267.2225    4.5836 H       249      M_A    0.0000
   1750 H         214.8543  267.8946    5.3104 H       249      M_A    0.0000
   1751 C         216.3026  269.5927    3.7893 C.3     250      M_A    0.0000
   1752 C         215.7266  271.0016    3.8586 C.3     250      M_A    0.0000
   1753 O         216.3774  271.8106    2.8799 O.3     250      M_A    0.0000
   1754 H         217.1275  269.5576    3.0686 H       250      M_A    0.0000
   1755 H         216.7069  269.3225    4.7713 H       250      M_A    0.0000
   1756 H         215.9218  271.3997    4.8642 H       250      M_A    0.0000
   1757 H         214.6423  270.9996    3.6845 H       250      M_A    0.0000
   1758 C         215.4588  272.6911    2.2689 C.3     251      M_A    0.0000
   1759 C         214.4480  271.9677    1.3878 C.3     251      M_A    0.0000
   1760 O         213.4715  272.9087    0.9442 O.3     251      M_A    0.0000
   1761 H         216.0135  273.4293    1.6786 H       251      M_A    0.0000
   1762 H         214.9238  273.2308    3.0585 H       251      M_A    0.0000
   1763 H         213.9678  271.1857    1.9926 H       251      M_A    0.0000
   1764 H         214.9354  271.4958    0.5242 H       251      M_A    0.0000
   1765 C         212.4802  273.1020    1.9303 C.3     252      M_A    0.0000
   1766 C         211.5713  271.8903    2.0957 C.3     252      M_A    0.0000
   1767 O         210.9837  271.9330    3.3952 O.3     252      M_A    0.0000
   1768 H         211.8868  273.9855    1.6687 H       252      M_A    0.0000
   1769 H         212.9801  273.3073    2.8837 H       252      M_A    0.0000
   1770 H         212.1877  270.9862    1.9922 H       252      M_A    0.0000
   1771 H         210.7861  271.8714    1.3281 H       252      M_A    0.0000
   1772 C         210.6577  270.6332    3.8387 C.3     253      M_A    0.0000
   1773 C         210.9511  270.4264    5.3194 C.3     253      M_A    0.0000
   1774 O         211.3656  269.0758    5.5195 O.3     253      M_A    0.0000
   1775 H         211.2133  269.9036    3.2387 H       253      M_A    0.0000
   1776 H         209.5895  270.4673    3.6589 H       253      M_A    0.0000
   1777 H         210.0262  270.6218    5.8801 H       253      M_A    0.0000
   1778 H         211.7299  271.1153    5.6730 H       253      M_A    0.0000
   1779 C         211.2678  268.3404    4.3185 C.3     254      M_A    0.0000
   1780 C         209.8717  267.7759    4.0869 C.3     254      M_A    0.0000
   1781 O         209.7558  267.3891    2.7184 O.3     254      M_A    0.0000
   1782 H         212.0041  267.5289    4.3383 H       254      M_A    0.0000
   1783 H         211.5276  269.0053    3.4870 H       254      M_A    0.0000
   1784 H         209.1429  268.5660    4.3163 H       254      M_A    0.0000
   1785 H         209.6749  266.9147    4.7393 H       254      M_A    0.0000
   1786 C         210.7178  266.4085    2.3935 C.3     255      M_A    0.0000
   1787 C         210.0993  265.1592    1.7784 C.3     255      M_A    0.0000
   1788 O         209.4545  264.4128    2.8093 O.3     255      M_A    0.0000
   1789 H         211.2767  266.1459    3.2988 H       255      M_A    0.0000
   1790 H         211.4258  266.8456    1.6804 H       255      M_A    0.0000
   1791 H         210.9083  264.5630    1.3335 H       255      M_A    0.0000
   1792 H         209.3771  265.4160    0.9919 H       255      M_A    0.0000
   1793 C         210.1382  264.5610    4.0354 C.3     256      M_A    0.0000
   1794 C         210.6134  263.2314    4.6080 C.3     256      M_A    0.0000
   1795 O         210.7756  262.3035    3.5363 O.3     256      M_A    0.0000
   1796 H         209.4789  265.0656    4.7507 H       256      M_A    0.0000
   1797 H         211.0059  265.2092    3.8681 H       256      M_A    0.0000
   1798 H         209.8459  262.8680    5.3058 H       256      M_A    0.0000
   1799 H         211.5598  263.3458    5.1531 H       256      M_A    0.0000
   1800 C         211.4416  261.1404    3.9792 C.3     257      M_A    0.0000
   1801 C         210.6075  259.8788    3.7942 C.3     257      M_A    0.0000
   1802 O         209.5805  259.8600    4.7845 O.3     257      M_A    0.0000
   1803 H         211.7085  261.2646    5.0349 H       257      M_A    0.0000
   1804 H         212.3728  261.0406    3.4101 H       257      M_A    0.0000
   1805 H         211.2696  259.0113    3.9239 H       257      M_A    0.0000
   1806 H         210.1634  259.8364    2.7907 H       257      M_A    0.0000
   1807 C         209.5410  258.6100    5.4393 C.3     258      M_A    0.0000
   1808 C         209.1198  258.7241    6.8990 C.3     258      M_A    0.0000
   1809 O         208.8363  257.4173    7.3969 O.3     258      M_A    0.0000
   1810 H         210.5287  258.1404    5.3674 H       258      M_A    0.0000
   1811 H         208.8280  257.9680    4.9100 H       258      M_A    0.0000
   1812 H         208.2154  259.3470    6.9444 H       258      M_A    0.0000
   1813 H         209.9038  259.1961    7.5061 H       258      M_A    0.0000
   1814 C         209.0777  257.3489    8.7860 C.3     259      M_A    0.0000
   1815 C         209.6443  256.0024    9.2187 C.3     259      M_A    0.0000
   1816 O         208.5673  255.1671    9.6409 O.3     259      M_A    0.0000
   1817 H         208.1422  257.5533    9.3193 H       259      M_A    0.0000
   1818 H         209.7903  258.1386    9.0497 H       259      M_A    0.0000
   1819 H         210.3342  256.1770   10.0563 H       259      M_A    0.0000
   1820 H         210.1969  255.5197    8.4017 H       259      M_A    0.0000
   1821 C         207.9776  254.5161    8.5359 C.3     260      M_A    0.0000
   1822 C         207.3621  253.1721    8.9053 C.3     260      M_A    0.0000
   1823 O         207.0039  252.4877    7.7057 O.3     260      M_A    0.0000
   1824 H         208.7363  254.3819    7.7566 H       260      M_A    0.0000
   1825 H         207.1959  255.1685    8.1305 H       260      M_A    0.0000
   1826 H         206.4645  253.3638    9.5100 H       260      M_A    0.0000
   1827 H         208.0594  252.5608    9.4934 H       260      M_A    0.0000
   1828 C         205.8308  251.7261    7.8964 C.3     261      M_A    0.0000
   1829 C         205.8334  250.9628    9.2151 C.3     261      M_A    0.0000
   1830 O         205.6812  249.5714    8.9386 O.3     261      M_A    0.0000
   1831 H         205.7196  251.0295    7.0577 H       261      M_A    0.0000
   1832 H         204.9728  252.4076    7.8789 H       261      M_A    0.0000
   1833 H         204.9860  251.3206    9.8168 H       261      M_A    0.0000
   1834 H         206.7617  251.1358    9.7757 H       261      M_A    0.0000
   1835 C         204.9412  248.9373    9.9599 C.3     262      M_A    0.0000
   1836 C         205.5414  247.6006   10.3775 C.3     262      M_A    0.0000
   1837 O         204.5145  246.8004   10.9615 O.3     262      M_A    0.0000
   1838 H         203.9102  248.7968    9.6161 H       262      M_A    0.0000
   1839 H         204.9143  249.6047   10.8287 H       262      M_A    0.0000
   1840 H         206.3296  247.7980   11.1176 H       262      M_A    0.0000
   1841 H         205.9856  247.0763    9.5208 H       262      M_A    0.0000
   1842 C         205.0469  245.9539   11.9578 C.3     263      M_A    0.0000
   1843 C         203.9673  245.2878   12.8017 C.3     263      M_A    0.0000
   1844 O         204.4746  245.0898   14.1205 O.3     263      M_A    0.0000
   1845 H         205.7190  246.5374   12.5973 H       263      M_A    0.0000
   1846 H         205.6454  245.1790   11.4656 H       263      M_A    0.0000
   1847 H         203.7266  244.3185   12.3429 H       263      M_A    0.0000
   1848 H         203.0544  245.8973   12.8373 H       263      M_A    0.0000
   1849 C         204.9830  246.2970   14.6465 C.3     264      M_A    0.0000
   1850 C         205.8157  246.0854   15.9047 C.3     264      M_A    0.0000
   1851 O         205.0756  246.5600   17.0285 O.3     264      M_A    0.0000
   1852 H         204.1462  246.9726   14.8573 H       264      M_A    0.0000
   1853 H         205.6070  246.7695   13.8795 H       264      M_A    0.0000
   1854 H         206.7458  246.6612   15.7979 H       264      M_A    0.0000
   1855 H         206.0708  245.0261   16.0424 H       264      M_A    0.0000
   1856 C         205.6921  246.1651   18.2354 C.3     265      M_A    0.0000
   1857 C         206.1691  247.3494   19.0668 C.3     265      M_A    0.0000
   1858 O         207.1846  246.9001   19.9627 O.3     265      M_A    0.0000
   1859 H         206.5344  245.5034   18.0037 H       265      M_A    0.0000
   1860 H         204.9659  245.5877   18.8186 H       265      M_A    0.0000
   1861 H         205.3105  247.7337   19.6354 H       265      M_A    0.0000
   1862 H         206.5588  248.1546   18.4297 H       265      M_A    0.0000
   1863 C         207.1384  247.6243   21.1735 C.3     266      M_A    0.0000
   1864 C         208.5240  247.9636   21.7088 C.3     266      M_A    0.0000
   1865 O         208.8302  247.0749   22.7822 O.3     266      M_A    0.0000
   1866 H         206.5802  247.0412   21.9148 H       266      M_A    0.0000
   1867 H         206.5856  248.5538   20.9964 H       266      M_A    0.0000
   1868 H         208.5031  249.0000   22.0742 H       266      M_A    0.0000
   1869 H         209.2874  247.8821   20.9234 H       266      M_A    0.0000
   1870 C         210.2181  246.8252   22.8434 C.3     267      M_A    0.0000
   1871 C         210.6508  246.2340   24.1793 C.3     267      M_A    0.0000
   1872 O         212.0316  246.5292   24.3846 O.3     267      M_A    0.0000
   1873 H         210.7559  247.7610   22.6533 H       267      M_A    0.0000
   1874 H         210.4762  246.1244   22.0414 H       267      M_A    0.0000
   1875 H         210.5026  245.1460   24.1337 H       267      M_A    0.0000
   1876 H         210.0527  246.6369   25.0076 H       267      M_A    0.0000
   1877 C         212.6774  245.4622   25.0458 C.3     268      M_A    0.0000
   1878 C         211.8667  244.9188   26.2158 C.3     268      M_A    0.0000
   1879 O         212.6859  244.9290   27.3839 O.3     268      M_A    0.0000
   1880 H         213.6595  245.8025   25.3932 H       268      M_A    0.0000
   1881 H         212.8416  244.6579   24.3198 H       268      M_A    0.0000
   1882 H         211.5701  243.8884   25.9746 H       268      M_A    0.0000
   1883 H         210.9607  245.5157   26.3863 H       268      M_A    0.0000
   1884 C         212.2115  243.9997   28.3347 C.3     269      M_A    0.0000
   1885 C         212.3122  244.5176   29.7640 C.3     269      M_A    0.0000
   1886 O         212.9622  243.5306   30.5636 O.3     269      M_A    0.0000
   1887 H         212.7763  243.0662   28.2311 H       269      M_A    0.0000
   1888 H         211.1623  243.7807   28.1064 H       269      M_A    0.0000
   1889 H         211.2924  244.6897   30.1361 H       269      M_A    0.0000
   1890 H         212.8681  245.4637   29.8086 H       269      M_A    0.0000
   1891 C         212.4539  243.5407   31.8804 C.3     270      M_A    0.0000
   1892 C         213.4247  244.1561   32.8806 C.3     270      M_A    0.0000
   1893 O         214.1866  243.1100   33.4816 O.3     270      M_A    0.0000
   1894 H         212.2099  242.5136   32.1747 H       270      M_A    0.0000
   1895 H         211.5224  244.1180   31.8842 H       270      M_A    0.0000
   1896 H         212.8366  244.6798   33.6473 H       270      M_A    0.0000
   1897 H         214.0946  244.8785   32.3955 H       270      M_A    0.0000
   1898 C         214.7285  243.5321   34.7148 C.3     271      M_A    0.0000
   1899 C         216.2469  243.6526   34.6792 C.3     271      M_A    0.0000
   1900 O         216.8072  242.6163   35.4843 O.3     271      M_A    0.0000
   1901 H         214.4244  242.8265   35.4962 H       271      M_A    0.0000
   1902 H         214.2976  244.5088   34.9625 H       271      M_A    0.0000
   1903 H         216.5199  244.6351   35.0893 H       271      M_A    0.0000
   1904 H         216.6302  243.5803   33.6526 H       271      M_A    0.0000
   1905 C         215.8511  242.1210   36.3971 C.3     272      M_A    0.0000
   1906 C         216.4739  241.2702   37.4969 C.3     272      M_A    0.0000
   1907 O         216.0162  239.9267   37.3508 O.3     272      M_A    0.0000
   1908 H         215.1038  241.5380   35.8469 H       272      M_A    0.0000
   1909 H         215.3373  242.9750   36.8528 H       272      M_A    0.0000
   1910 H         216.1476  241.6743   38.4655 H       272      M_A    0.0000
   1911 H         217.5709  241.3008   37.4537 H       272      M_A    0.0000
   1912 C         216.5527  239.1034   38.3641 C.3     273      M_A    0.0000
   1913 C         218.0689  239.2110   38.4678 C.3     273      M_A    0.0000
   1914 O         218.4978  238.5183   39.6392 O.3     273      M_A    0.0000
   1915 H         216.2607  238.0651   38.1695 H       273      M_A    0.0000
   1916 H         216.1065  239.4009   39.3198 H       273      M_A    0.0000
   1917 H         218.3299  240.2758   38.5451 H       273      M_A    0.0000
   1918 H         218.5615  238.7908   37.5807 H       273      M_A    0.0000
   1919 C         217.4600  238.4626   40.5945 C.3     274      M_A    0.0000
   1920 C         217.4436  239.6756   41.5162 C.3     274      M_A    0.0000
   1921 O         218.2447  239.3905   42.6620 O.3     274      M_A    0.0000
   1922 H         217.5675  237.5438   41.1822 H       274      M_A    0.0000
   1923 H         216.5048  238.4059   40.0603 H       274      M_A    0.0000
   1924 H         216.4034  239.8568   41.8215 H       274      M_A    0.0000
   1925 H         217.8223  240.5712   41.0057 H       274      M_A    0.0000
   1926 C         218.4628  240.5597   43.4222 C.3     275      M_A    0.0000
   1927 C         219.9023  241.0526   43.3427 C.3     275      M_A    0.0000
   1928 O         220.3878  241.2631   44.6677 O.3     275      M_A    0.0000
   1929 H         218.1893  240.3614   44.4648 H       275      M_A    0.0000
   1930 H         217.7950  241.3430   43.0462 H       275      M_A    0.0000
   1931 H         219.9070  242.0006   42.7864 H       275      M_A    0.0000
   1932 H         220.5434  240.3323   42.8170 H       275      M_A    0.0000
   1933 C         221.7940  241.1469   44.7087 C.3     276      M_A    0.0000
   1934 C         222.3707  241.4684   46.0818 C.3     276      M_A    0.0000
   1935 O         223.7901  241.5638   45.9710 O.3     276      M_A    0.0000
   1936 H         222.2273  241.8116   43.9526 H       276      M_A    0.0000
   1937 H         222.0612  240.1186   44.4400 H       276      M_A    0.0000
   1938 H         222.1020  240.6495   46.7638 H       276      M_A    0.0000
   1939 H         221.9603  242.4066   46.4785 H       276      M_A    0.0000
   1940 C         224.3472  240.3196   45.6048 C.3     277      M_A    0.0000
   1941 C         225.1686  239.6911   46.7236 C.3     277      M_A    0.0000
   1942 O         226.4516  239.3400   46.2075 O.3     277      M_A    0.0000
   1943 H         224.9685  240.4577   44.7127 H       277      M_A    0.0000
   1944 H         223.5280  239.6422   45.3382 H       277      M_A    0.0000
   1945 H         224.6425  238.7890   47.0664 H       277      M_A    0.0000
   1946 H         225.2799  240.3784   47.5729 H       277      M_A    0.0000
   1947 C         227.4391  239.4443   47.2108 C.3     278      M_A    0.0000
   1948 C         228.0204  238.0926   47.6063 C.3     278      M_A    0.0000
   1949 O         228.5948  238.2046   48.9076 O.3     278      M_A    0.0000
   1950 H         227.0041  239.9386   48.0869 H       278      M_A    0.0000
   1951 H         228.2449  240.0841   46.8338 H       278      M_A    0.0000
   1952 H         228.7973  237.8293   46.8748 H       278      M_A    0.0000
   1953 H         227.2509  237.3091   47.6008 H       278      M_A    0.0000
   1954 C         228.5277  236.9712   49.5909 C.3     279      M_A    0.0000
   1955 C         229.0584  237.0592   51.0163 C.3     279      M_A    0.0000
   1956 O         230.4550  236.7674   51.0034 O.3     279      M_A    0.0000
   1957 H         229.0907  236.2206   49.0246 H       279      M_A    0.0000
   1958 H         227.4801  236.6507   49.6181 H       279      M_A    0.0000
   1959 H         228.5253  236.3149   51.6244 H       279      M_A    0.0000
   1960 H         228.8860  238.0548   51.4468 H       279      M_A    0.0000
   1961 C         230.9242  236.5135   52.3103 C.3     280      M_A    0.0000
   1962 C         231.7682  237.6547   52.8641 C.3     280      M_A    0.0000
   1963 O         233.0571  237.1468   53.2054 O.3     280      M_A    0.0000
   1964 H         231.5044  235.5837   52.3048 H       280      M_A    0.0000
   1965 H         230.0569  236.3605   52.9625 H       280      M_A    0.0000
   1966 H         231.2679  238.0427   53.7626 H       280      M_A    0.0000
   1967 H         231.8660  238.4703   52.1352 H       280      M_A    0.0000
   1968 C         233.2377  235.8492   52.6798 C.3     281      M_A    0.0000
   1969 C         234.5922  235.2521   53.0407 C.3     281      M_A    0.0000
   1970 O         235.1933  234.7318   51.8559 O.3     281      M_A    0.0000
   1971 H         233.1208  235.8880   51.5908 H       281      M_A    0.0000
   1972 H         232.4452  235.2049   53.0768 H       281      M_A    0.0000
   1973 H         234.4247  234.4412   53.7635 H       281      M_A    0.0000
   1974 H         235.2509  236.0020   53.4987 H       281      M_A    0.0000
   1975 C         236.0545  233.6566   52.1636 C.3     282      M_A    0.0000
   1976 C         237.3968  234.1183   52.7172 C.3     282      M_A    0.0000
   1977 O         238.4388  233.4529   52.0051 O.3     282      M_A    0.0000
   1978 H         236.2062  233.0538   51.2609 H       282      M_A    0.0000
   1979 H         235.5593  233.0226   52.9077 H       282      M_A    0.0000
   1980 H         237.4372  233.8470   53.7815 H       282      M_A    0.0000
   1981 H         237.5142  235.2065   52.6262 H       282      M_A    0.0000
   1982 C         239.5760  233.2860   52.8246 C.3     283      M_A    0.0000
   1983 C         240.7689  234.1059   52.3489 C.3     283      M_A    0.0000
   1984 O         241.9649  233.4970   52.8332 O.3     283      M_A    0.0000
   1985 H         239.8380  232.2223   52.8559 H       283      M_A    0.0000
   1986 H         239.3132  233.5940   53.8429 H       283      M_A    0.0000
   1987 H         240.6707  235.1200   52.7612 H       283      M_A    0.0000
   1988 H         240.7975  234.1721   51.2531 H       283      M_A    0.0000
   1989 C         241.7161  232.1728   53.2540 C.3     284      M_A    0.0000
   1990 C         242.7719  231.6557   54.2233 C.3     284      M_A    0.0000
   1991 O         243.2592  230.4034   53.7437 O.3     284      M_A    0.0000
   1992 H         241.6638  231.5241   52.3722 H       284      M_A    0.0000
   1993 H         240.7365  232.1470   53.7445 H       284      M_A    0.0000
   1994 H         242.2960  231.5220   55.2049 H       284      M_A    0.0000
   1995 H         243.6018  232.3673   54.3278 H       284      M_A    0.0000
   1996 C         244.5366  230.1272   54.2771 C.3     285      M_A    0.0000
   1997 C         244.5299  228.9430   55.2358 C.3     285      M_A    0.0000
   1998 O         245.7609  228.9314   55.9572 O.3     285      M_A    0.0000
   1999 H         244.9096  231.0229   54.7868 H       285      M_A    0.0000
   2000 H         245.2162  229.9105   53.4452 H       285      M_A    0.0000
   2001 H         244.4354  228.0240   54.6405 H       285      M_A    0.0000
   2002 H         243.6847  228.9987   55.9348 H       285      M_A    0.0000
   2003 C         246.6228  229.9473   55.4906 C.3     286      M_A    0.0000
   2004 C         248.0867  229.6675   55.8068 C.3     286      M_A    0.0000
   2005 O         248.4657  230.4429   56.9430 O.3     286      M_A    0.0000
   2006 H         246.3174  230.9026   55.9325 H       286      M_A    0.0000
   2007 H         246.5004  230.0289   54.4046 H       286      M_A    0.0000
   2008 H         248.6858  229.9632   54.9341 H       286      M_A    0.0000
   2009 H         248.2563  228.6008   56.0057 H       286      M_A    0.0000
   2010 C         249.7294  230.0383   57.4246 C.3     287      M_A    0.0000
   2011 C         249.7048  228.6460   58.0428 C.3     287      M_A    0.0000
   2012 O         251.0485  228.2008   58.2216 O.3     287      M_A    0.0000
   2013 H         250.0802  230.7713   58.1600 H       287      M_A    0.0000
   2014 H         250.4345  230.0451   56.5857 H       287      M_A    0.0000
   2015 H         249.1766  227.9756   57.3502 H       287      M_A    0.0000
   2016 H         249.1768  228.6450   59.0058 H       287      M_A    0.0000
   2017 C         251.1398  226.8036   58.0422 C.3     288      M_A    0.0000
   2018 C         252.0062  226.4195   56.8492 C.3     288      M_A    0.0000
   2019 O         251.9259  225.0074   56.6612 O.3     288      M_A    0.0000
   2020 H         250.1302  226.3944   57.9223 H       288      M_A    0.0000
   2021 H         251.5694  226.3684   58.9515 H       288      M_A    0.0000
   2022 H         253.0422  226.7096   57.0738 H       288      M_A    0.0000
   2023 H         251.6844  226.9394   55.9370 H       288      M_A    0.0000
   2024 C         252.5068  224.6336   55.4302 C.3     289      M_A    0.0000
   2025 C         252.0272  223.2720   54.9431 C.3     289      M_A    0.0000
   2026 O         252.8318  222.2604   55.5474 O.3     289      M_A    0.0000
   2027 H         253.5975  224.6328   55.5381 H       289      M_A    0.0000
   2028 H         252.2469  225.3927   54.6838 H       289      M_A    0.0000
   2029 H         252.1437  223.2411   53.8507 H       289      M_A    0.0000
   2030 H         250.9695  223.1087   55.1896 H       289      M_A    0.0000
   2031 C         252.0374  221.3857   56.3198 C.3     290      M_A    0.0000
   2032 C         252.2720  219.9201   55.9756 C.3     290      M_A    0.0000
   2033 O         251.2154  219.1433   56.5376 O.3     290      M_A    0.0000
   2034 H         250.9821  221.6429   56.1744 H       290      M_A    0.0000
   2035 H         252.2769  221.5479   57.3768 H       290      M_A    0.0000
   2036 H         253.2337  219.6176   56.4133 H       290      M_A    0.0000
   2037 H         252.3152  219.7662   54.8890 H       290      M_A    0.0000
   2038 C         251.6594  217.8365   56.8340 C.3     291      M_A    0.0000
   2039 C         250.5279  216.8161   56.8301 C.3     291      M_A    0.0000
   2040 O         250.7043  215.9330   57.9367 O.3     291      M_A    0.0000
   2041 H         252.1573  217.8437   57.8102 H       291      M_A    0.0000
   2042 H         252.4037  217.5486   56.0830 H       291      M_A    0.0000
   2043 H         250.5815  216.2524   55.8881 H       291      M_A    0.0000
   2044 H         249.5470  217.3061   56.8923 H       291      M_A    0.0000
   2045 C         252.0250  215.4362   57.9736 C.3     292      M_A    0.0000
   2046 C         252.0915  213.9274   57.7718 C.3     292      M_A    0.0000
   2047 O         252.5135  213.3207   58.9923 O.3     292      M_A    0.0000
   2048 H         252.4801  215.7087   58.9326 H       292      M_A    0.0000
   2049 H         252.5992  215.9290   57.1809 H       292      M_A    0.0000
   2050 H         252.8236  213.7223   56.9782 H       292      M_A    0.0000
   2051 H         251.1178  213.5213   57.4667 H       292      M_A    0.0000
   2052 C         252.3065  211.9249   58.9538 C.3     293      M_A    0.0000
   2053 C         250.8302  211.5488   58.9754 C.3     293      M_A    0.0000
   2054 O         250.7096  210.1529   58.7053 O.3     293      M_A    0.0000
   2055 H         252.8251  211.4656   59.8030 H       293      M_A    0.0000
   2056 H         252.7616  211.5358   58.0360 H       293      M_A    0.0000
   2057 H         250.3202  212.1276   58.1926 H       293      M_A    0.0000
   2058 H         250.3711  211.7855   59.9446 H       293      M_A    0.0000
   2059 C         251.5089  209.7872   57.6008 C.3     294      M_A    0.0000
   2060 C         250.6840  209.3322   56.4033 C.3     294      M_A    0.0000
   2061 O         251.2697  208.1463   55.8682 O.3     294      M_A    0.0000
   2062 H         252.1972  208.9918   57.9086 H       294      M_A    0.0000
   2063 H         252.1117  210.6553   57.3111 H       294      M_A    0.0000
   2064 H         250.7055  210.1334   55.6513 H       294      M_A    0.0000
   2065 H         249.6399  209.1418   56.6857 H       294      M_A    0.0000
   2066 C         250.8861  207.9635   54.5220 C.3     295      M_A    0.0000
   2067 C         251.8928  207.1376   53.7309 C.3     295      M_A    0.0000
   2068 O         251.6805  207.3682   52.3389 O.3     295      M_A    0.0000
   2069 H         250.7535  208.9456   54.0542 H       295      M_A    0.0000
   2070 H         249.9157  207.4545   54.5080 H       295      M_A    0.0000
   2071 H         251.7224  206.0775   53.9657 H       295      M_A    0.0000
   2072 H         252.9248  207.3973   54.0022 H       295      M_A    0.0000
   2073 C         252.7366  206.8249   51.5759 C.3     296      M_A    0.0000
   2074 C         252.7261  207.3066   50.1305 C.3     296      M_A    0.0000
   2075 O         251.8381  206.4803   49.3792 O.3     296      M_A    0.0000
   2076 H         252.6725  205.7313   51.6094 H       296      M_A    0.0000
   2077 H         253.6835  207.1172   52.0438 H       296      M_A    0.0000
   2078 H         253.7474  207.2167   49.7346 H       296      M_A    0.0000
   2079 H         252.4122  208.3568   50.0611 H       296      M_A    0.0000
   2080 C         250.5116  206.6244   49.8401 C.3     297      M_A    0.0000
   2081 C         249.4880  206.5650   48.7132 C.3     297      M_A    0.0000
   2082 O         248.3388  207.3177   49.0988 O.3     297      M_A    0.0000
   2083 H         250.4244  207.5747   50.3791 H       297      M_A    0.0000
   2084 H         250.3066  205.8176   50.5529 H       297      M_A    0.0000
   2085 H         249.2124  205.5123   48.5591 H       297      M_A    0.0000
   2086 H         249.9008  206.9622   47.7762 H       297      M_A    0.0000
   2087 C         247.1600  206.7165   48.6072 C.3     298      M_A    0.0000
   2088 C         247.2882  206.2720   47.1555 C.3     298      M_A    0.0000
   2089 O         246.0182  206.4121   46.5203 O.3     298      M_A    0.0000
   2090 H         246.3299  207.4242   48.7130 H       298      M_A    0.0000
   2091 H         246.9346  205.8437   49.2303 H       298      M_A    0.0000
   2092 H         247.5967  205.2172   47.1487 H       298      M_A    0.0000
   2093 H         248.0435  206.8636   46.6210 H       298      M_A    0.0000
   2094 C         245.8423  205.4200   45.5316 C.3     299      M_A    0.0000
   2095 C         244.9355  205.8766   44.3955 C.3     299      M_A    0.0000
   2096 O         244.1940  204.7533   43.9222 O.3     299      M_A    0.0000
   2097 H         245.4327  204.5189   46.0020 H       299      M_A    0.0000
   2098 H         246.8265  205.1643   45.1233 H       299      M_A    0.0000
   2099 H         245.5712  206.2724   43.5910 H       299      M_A    0.0000
   2100 H         244.2496  206.6686   44.7246 H       299      M_A    0.0000
   2101 C         243.6018  205.0365   42.6725 C.3     300      M_A    0.0000
   2102 C         242.0833  205.1339   42.7501 C.3     300      M_A    0.0000
   2103 O         241.5167  204.1200   41.9214 O.3     300      M_A    0.0000
   2104 H         243.8937  204.2592   41.9571 H       300      M_A    0.0000
   2105 H         244.0036  205.9896   42.3106 H       300      M_A    0.0000
   2106 H         241.7870  206.1268   42.3837 H       300      M_A    0.0000
   2107 H         241.7271  205.0185   43.7826 H       300      M_A    0.0000
   2108 C         242.0335  202.8510   42.2609 C.3     301      M_A    0.0000
   2109 C         240.9520  201.8773   42.7122 C.3     301      M_A    0.0000
   2110 O         240.9389  201.8367   44.1384 O.3     301      M_A    0.0000
   2111 H         242.7841  202.9730   43.0501 H       301      M_A    0.0000
   2112 H         242.5402  202.4402   41.3804 H       301      M_A    0.0000
   2113 H         241.1992  200.8844   42.3110 H       301      M_A    0.0000
   2114 H         239.9640  202.1738   42.3352 H       301      M_A    0.0000
   2115 C         239.8011  201.1456   44.6079 C.3     302      M_A    0.0000
   2116 C         238.7764  202.0703   45.2530 C.3     302      M_A    0.0000
   2117 O         237.9816  201.3097   46.1616 O.3     302      M_A    0.0000
   2118 H         240.1213  200.3799   45.3236 H       302      M_A    0.0000
   2119 H         239.3361  200.6332   43.7581 H       302      M_A    0.0000
   2120 H         238.1426  202.4843   44.4561 H       302      M_A    0.0000
   2121 H         239.2635  202.8999   45.7827 H       302      M_A    0.0000
   2122 C         236.6340  201.7275   46.1169 C.3     303      M_A    0.0000
   2123 C         236.4865  203.2431   46.1682 C.3     303      M_A    0.0000
   2124 O         235.2077  203.5600   46.7161 O.3     303      M_A    0.0000
   2125 H         236.0919  201.2674   46.9508 H       303      M_A    0.0000
   2126 H         236.1904  201.3560   45.1862 H       303      M_A    0.0000
   2127 H         236.5600  203.6270   45.1410 H       303      M_A    0.0000
   2128 H         237.2794  203.7021   46.7737 H       303      M_A    0.0000
   2129 C         234.4163  204.2482   45.7713 C.3     304      M_A    0.0000
   2130 C         235.2209  205.2418   44.9426 C.3     304      M_A    0.0000
   2131 O         234.7026  206.5518   45.1687 O.3     304      M_A    0.0000
   2132 H         233.6053  204.7651   46.2968 H       304      M_A    0.0000
   2133 H         233.9613  203.5095   45.1018 H       304      M_A    0.0000
   2134 H         235.1080  204.9714   43.8833 H       304      M_A    0.0000
   2135 H         236.2874  205.2090   45.2031 H       304      M_A    0.0000
   2136 C         233.3562  206.4905   45.5885 C.3     305      M_A    0.0000
   2137 C         232.3776  206.4543   44.4213 C.3     305      M_A    0.0000
   2138 O         232.3044  207.7575   43.8450 O.3     305      M_A    0.0000
   2139 H         233.1452  207.3529   46.2310 H       305      M_A    0.0000
   2140 H         233.2262  205.5856   46.1929 H       305      M_A    0.0000
   2141 H         231.3930  206.1612   44.8120 H       305      M_A    0.0000
   2142 H         232.6872  205.7239   43.6620 H       305      M_A    0.0000
   2143 C         231.6075  207.7225   42.6179 C.3     306      M_A    0.0000
   2144 C         232.2764  206.8212   41.5875 C.3     306      M_A    0.0000
   2145 O         232.7989  207.6349   40.5384 O.3     306      M_A    0.0000
   2146 H         231.5236  208.7433   42.2281 H       306      M_A    0.0000
   2147 H         230.5931  207.3551   42.8100 H       306      M_A    0.0000
   2148 H         231.5143  206.1375   41.1879 H       306      M_A    0.0000
   2149 H         233.0817  206.2263   42.0389 H       306      M_A    0.0000
   2150 C         233.1613  206.8443   39.4265 C.3     307      M_A    0.0000
   2151 C         232.2222  205.6636   39.2136 C.3     307      M_A    0.0000
   2152 O         232.9936  204.4634   39.1921 O.3     307      M_A    0.0000
   2153 H         234.1889  206.4888   39.5636 H       307      M_A    0.0000
   2154 H         233.1454  207.4798   38.5339 H       307      M_A    0.0000
   2155 H         231.7160  205.8014   38.2478 H       307      M_A    0.0000
   2156 H         231.4627  205.6085   40.0050 H       307      M_A    0.0000
   2157 C         232.3798  203.4897   38.3750 C.3     308      M_A    0.0000
   2158 C         231.7715  202.3468   39.1782 C.3     308      M_A    0.0000
   2159 O         232.5040  201.1537   38.9030 O.3     308      M_A    0.0000
   2160 H         233.1214  203.1009   37.6680 H       308      M_A    0.0000
   2161 H         231.5900  203.9785   37.7934 H       308      M_A    0.0000
   2162 H         230.7261  202.2267   38.8609 H       308      M_A    0.0000
   2163 H         231.7908  202.5601   40.2553 H       308      M_A    0.0000
   2164 C         232.4450  200.2672   40.0000 C.3     309      M_A    0.0000
   2165 C         231.9946  198.8675   39.6011 C.3     309      M_A    0.0000
   2166 O         231.2548  198.2997   40.6811 O.3     309      M_A    0.0000
   2167 H         231.7664  200.6810   40.7546 H       309      M_A    0.0000
   2168 H         233.4436  200.2081   40.4473 H       309      M_A    0.0000
   2169 H         232.8922  198.2647   39.4035 H       309      M_A    0.0000
   2170 H         231.3776  198.8893   38.6928 H       309      M_A    0.0000
   2171 C         231.1418  196.9010   40.5281 C.3     310      M_A    0.0000
   2172 C         229.7021  196.4465   40.3227 C.3     310      M_A    0.0000
   2173 O         229.2541  195.7948   41.5103 O.3     310      M_A    0.0000
   2174 H         231.5694  196.4117   41.4106 H       310      M_A    0.0000
   2175 H         231.7390  196.6015   39.6594 H       310      M_A    0.0000
   2176 H         229.6848  195.7422   39.4790 H       310      M_A    0.0000
   2177 H         229.0445  197.2942   40.0878 H       310      M_A    0.0000
   2178 C         228.0701  195.0668   41.2641 C.3     311      M_A    0.0000
   2179 C         226.8378  195.9591   41.1816 C.3     311      M_A    0.0000
   2180 O         225.8622  195.4784   42.1052 O.3     311      M_A    0.0000
   2181 H         227.9421  194.3192   42.0552 H       311      M_A    0.0000
   2182 H         228.1879  194.5307   40.3156 H       311      M_A    0.0000
   2183 H         226.4444  195.9019   40.1569 H       311      M_A    0.0000
   2184 H         227.0854  197.0051   41.4063 H       311      M_A    0.0000
   2185 C         224.5795  195.9673   41.7762 C.3     312      M_A    0.0000
   2186 C         223.5095  195.5234   42.7659 C.3     312      M_A    0.0000
   2187 O         222.5443  194.7338   42.0725 O.3     312      M_A    0.0000
   2188 H         224.3205  195.6323   40.7654 H       312      M_A    0.0000
   2189 H         224.6227  197.0622   41.7630 H       312      M_A    0.0000
   2190 H         223.0319  196.4238   43.1771 H       312      M_A    0.0000
   2191 H         223.9441  194.9459   43.5928 H       312      M_A    0.0000
   2192 C         221.2966  194.7782   42.7312 C.3     313      M_A    0.0000
   2193 C         220.7265  193.3920   43.0046 C.3     313      M_A    0.0000
   2194 O         219.6443  193.1566   42.1049 O.3     313      M_A    0.0000
   2195 H         220.5951  195.3613   42.1238 H       313      M_A    0.0000
   2196 H         221.4298  195.3046   43.6831 H       313      M_A    0.0000
   2197 H         220.3631  193.3721   44.0417 H       313      M_A    0.0000
   2198 H         221.4919  192.6136   42.8843 H       313      M_A    0.0000
   2199 C         218.6401  192.3813   42.7236 C.3     314      M_A    0.0000
   2200 C         218.0488  191.3321   41.7904 C.3     314      M_A    0.0000
   2201 O         216.6504  191.2231   42.0519 O.3     314      M_A    0.0000
   2202 H         217.8511  193.0486   43.0890 H       314      M_A    0.0000
   2203 H         219.0806  191.8798   43.5927 H       314      M_A    0.0000
   2204 H         218.5450  190.3737   41.9981 H       314      M_A    0.0000
   2205 H         218.2153  191.5942   40.7370 H       314      M_A    0.0000
   2206 C         216.2065  189.8983   41.8510 C.3     315      M_A    0.0000
   2207 C         214.6930  189.7622   41.9612 C.3     315      M_A    0.0000
   2208 O         214.3929  188.7741   42.9457 O.3     315      M_A    0.0000
   2209 H         216.6980  189.2448   42.5807 H       315      M_A    0.0000
   2210 H         216.5229  189.5784   40.8517 H       315      M_A    0.0000
   2211 H         214.3078  189.4451   40.9819 H       315      M_A    0.0000
   2212 H         214.2240  190.7177   42.2318 H       315      M_A    0.0000
   2213 C         215.5426  188.4557   43.7003 C.3     316      M_A    0.0000
   2214 C         215.4586  187.0787   44.3471 C.3     316      M_A    0.0000
   2215 O         214.8414  187.2111   45.6266 O.3     316      M_A    0.0000
   2216 H         215.6876  189.2245   44.4677 H       316      M_A    0.0000
   2217 H         216.4106  188.4849   43.0320 H       316      M_A    0.0000
   2218 H         216.4817  186.6940   44.4621 H       316      M_A    0.0000
   2219 H         214.8866  186.3782   43.7240 H       316      M_A    0.0000
   2220 C         214.6452  185.9453   46.2198 C.3     317      M_A    0.0000
   2221 C         213.7520  185.0366   45.3843 C.3     317      M_A    0.0000
   2222 O         212.9166  184.2833   46.2621 O.3     317      M_A    0.0000
   2223 H         214.2139  186.0839   47.2177 H       317      M_A    0.0000
   2224 H         215.6243  185.4690   46.3437 H       317      M_A    0.0000
   2225 H         214.3988  184.3594   44.8090 H       317      M_A    0.0000
   2226 H         213.1360  185.6157   44.6834 H       317      M_A    0.0000
   2227 C         212.4283  183.1268   45.6166 C.3     318      M_A    0.0000
   2228 C         211.1386  183.3833   44.8470 C.3     318      M_A    0.0000
   2229 O         210.5901  182.1298   44.4426 O.3     318      M_A    0.0000
   2230 H         212.2710  182.3422   46.3653 H       318      M_A    0.0000
   2231 H         213.1965  182.7726   44.9199 H       318      M_A    0.0000
   2232 H         211.3847  183.9878   43.9627 H       318      M_A    0.0000
   2233 H         210.4105  183.9331   45.4583 H       318      M_A    0.0000
   2234 C         211.6110  181.2499   44.0230 C.3     319      M_A    0.0000
   2235 C         211.1664  180.3299   42.8928 C.3     319      M_A    0.0000
   2236 O         210.8673  179.0460   43.4386 O.3     319      M_A    0.0000
   2237 H         211.9444  180.6573   44.8825 H       319      M_A    0.0000
   2238 H         212.4623  181.8500   43.6822 H       319      M_A    0.0000
   2239 H         211.9945  180.2486   42.1747 H       319      M_A    0.0000
   2240 H         210.2867  180.7317   42.3724 H       319      M_A    0.0000
   2241 C         211.1148  178.0302   42.4903 C.3     320      M_A    0.0000
   2242 C         210.1112  178.0389   41.3440 C.3     320      M_A    0.0000
   2243 O         209.3586  176.8274   41.3855 O.3     320      M_A    0.0000
   2244 H         211.0989  177.0591   42.9980 H       320      M_A    0.0000
   2245 H         212.1223  178.1773   42.0851 H       320      M_A    0.0000
   2246 H         210.6724  178.0997   40.4009 H       320      M_A    0.0000
   2247 H         209.4368  178.9033   41.4091 H       320      M_A    0.0000
   2248 C         208.1596  176.9590   40.6522 C.3     321      M_A    0.0000
   2249 C         207.1068  175.9351   41.0581 C.3     321      M_A    0.0000
   2250 O         206.0919  175.9005   40.0558 O.3     321      M_A    0.0000
   2251 H         208.3849  176.8651   39.5838 H       321      M_A    0.0000
   2252 H         207.7629  177.9665   40.8213 H       321      M_A    0.0000
   2253 H         206.6756  176.2527   42.0178 H       321      M_A    0.0000
   2254 H         207.5469  174.9366   41.1825 H       321      M_A    0.0000
   2255 C         205.3168  177.0798   40.0892 C.3     322      M_A    0.0000
   2256 C         203.8673  176.8198   40.4802 C.3     322      M_A    0.0000
   2257 O         203.1166  176.5460   39.2982 O.3     322      M_A    0.0000
   2258 H         205.3614  177.5618   39.1059 H       322      M_A    0.0000
   2259 H         205.7663  177.7653   40.8165 H       322      M_A    0.0000
   2260 H         203.4796  177.7242   40.9697 H       322      M_A    0.0000
   2261 H         203.7867  175.9777   41.1806 H       322      M_A    0.0000
   2262 C         201.8559  176.0000   39.6225 C.3     323      M_A    0.0000
   2263 C         201.5627  174.7091   38.8682 C.3     323      M_A    0.0000
   2264 O         200.4793  174.9406   37.9690 O.3     323      M_A    0.0000
   2265 H         201.0810  176.7453   39.4100 H       323      M_A    0.0000
   2266 H         201.8366  175.7977   40.6994 H       323      M_A    0.0000
   2267 H         201.2825  173.9417   39.6034 H       323      M_A    0.0000
   2268 H         202.4441  174.3607   38.3135 H       323      M_A    0.0000
   2269 C         199.6597  173.7956   37.8693 C.3     324      M_A    0.0000
   2270 C         199.1045  173.5905   36.4654 C.3     324      M_A    0.0000
   2271 O         197.7664  174.0843   36.4258 O.3     324      M_A    0.0000
   2272 H         198.8390  173.8827   38.5904 H       324      M_A    0.0000
   2273 H         200.2572  172.9207   38.1493 H       324      M_A    0.0000
   2274 H         199.1131  172.5127   36.2503 H       324      M_A    0.0000
   2275 H         199.7177  174.1050   35.7134 H       324      M_A    0.0000
   2276 C         197.7258  175.3708   35.8464 C.3     325      M_A    0.0000
   2277 C         196.7821  176.3162   36.5792 C.3     325      M_A    0.0000
   2278 O         195.5288  176.3311   35.8974 O.3     325      M_A    0.0000
   2279 H         197.4260  175.2778   34.7963 H       325      M_A    0.0000
   2280 H         198.7387  175.7887   35.8674 H       325      M_A    0.0000
   2281 H         197.2285  177.3205   36.5657 H       325      M_A    0.0000
   2282 H         196.6387  176.0083   37.6236 H       325      M_A    0.0000
   2283 C         194.4731  176.0357   36.7866 C.3     326      M_A    0.0000
   2284 C         193.3837  177.1010   36.7805 C.3     326      M_A    0.0000
   2285 O         192.3678  176.7219   37.7078 O.3     326      M_A    0.0000
   2286 H         194.8817  175.9201   37.7969 H       326      M_A    0.0000
   2287 H         194.0358  175.0748   36.4926 H       326      M_A    0.0000
   2288 H         192.9648  177.1532   35.7657 H       326      M_A    0.0000
   2289 H         193.7870  178.0872   37.0465 H       326      M_A    0.0000
   2290 C         192.2459  175.3169   37.7683 C.3     327      M_A    0.0000
   2291 C         190.7977  174.8567   37.8796 C.3     327      M_A    0.0000
   2292 O         190.7805  173.5095   38.3491 O.3     327      M_A    0.0000
   2293 H         192.8258  174.9467   38.6214 H       327      M_A    0.0000
   2294 H         192.6866  174.8949   36.8581 H       327      M_A    0.0000
   2295 H         190.3456  174.9112   36.8793 H       327      M_A    0.0000
   2296 H         190.2247  175.4999   38.5609 H       327      M_A    0.0000
   2297 C         189.5536  172.8865   38.0341 C.3     328      M_A    0.0000
   2298 C         188.6332  172.7565   39.2414 C.3     328      M_A    0.0000
   2299 O         187.3671  172.2678   38.8010 O.3     328      M_A    0.0000
   2300 H         189.7568  171.8980   37.6067 H       328      M_A    0.0000
   2301 H         189.0525  173.4850   37.2648 H       328      M_A    0.0000
   2302 H         188.5156  173.7537   39.6883 H       328      M_A    0.0000
   2303 H         189.0561  172.0797   39.9958 H       328      M_A    0.0000
   2304 C         186.5354  173.3327   38.3925 C.3     329      M_A    0.0000
   2305 C         185.0834  172.9083   38.2109 C.3     329      M_A    0.0000
   2306 O         184.7801  172.8999   36.8167 O.3     329      M_A    0.0000
   2307 H         186.9262  173.7496   37.4573 H       329      M_A    0.0000
   2308 H         186.5860  174.1190   39.1541 H       329      M_A    0.0000
   2309 H         184.4478  173.6403   38.7287 H       329      M_A    0.0000
   2310 H         184.9000  171.9149   38.6418 H       329      M_A    0.0000
   2311 C         185.3543  171.7743   36.1875 C.3     330      M_A    0.0000
   2312 C         184.5119  171.2549   35.0291 C.3     330      M_A    0.0000
   2313 O         184.7886  169.8669   34.8484 O.3     330      M_A    0.0000
   2314 H         185.4968  170.9846   36.9339 H       330      M_A    0.0000
   2315 H         186.3434  172.0590   35.8114 H       330      M_A    0.0000
   2316 H         184.7937  171.8143   34.1259 H       330      M_A    0.0000
   2317 H         183.4399  171.4037   35.2156 H       330      M_A    0.0000
   2318 C         184.0654  169.3523   33.7508 C.3     331      M_A    0.0000
   2319 C         183.9585  167.8326   33.7776 C.3     331      M_A    0.0000
   2320 O         183.9637  167.3498   32.4350 O.3     331      M_A    0.0000
   2321 H         184.5476  169.6800   32.8228 H       331      M_A    0.0000
   2322 H         183.0577  169.7824   33.7719 H       331      M_A    0.0000
   2323 H         183.0115  167.5669   34.2681 H       331      M_A    0.0000
   2324 H         184.7863  167.3832   34.3424 H       331      M_A    0.0000
   2325 C         184.0373  165.9403   32.4115 C.3     332      M_A    0.0000
   2326 C         182.8146  165.2984   31.7679 C.3     332      M_A    0.0000
   2327 O         182.7020  163.9558   32.2374 O.3     332      M_A    0.0000
   2328 H         184.1595  165.5741   33.4372 H       332      M_A    0.0000
   2329 H         184.9315  165.6529   31.8468 H       332      M_A    0.0000
   2330 H         182.9613  165.3038   30.6786 H       332      M_A    0.0000
   2331 H         181.8988  165.8573   32.0029 H       332      M_A    0.0000
   2332 C         181.4054  163.4508   32.0000 C.3     333      M_A    0.0000
   2333 C         181.3698  161.9289   31.9368 C.3     333      M_A    0.0000
   2334 O         181.1956  161.5313   30.5776 O.3     333      M_A    0.0000
   2335 H         181.0247  163.8761   31.0645 H       333      M_A    0.0000
   2336 H         180.7511  163.7908   32.8107 H       333      M_A    0.0000
   2337 H         180.5190  161.5832   32.5406 H       333      M_A    0.0000
   2338 H         182.2912  161.4899   32.3421 H       333      M_A    0.0000
   2339 C         180.6830  160.2182   30.5031 C.3     334      M_A    0.0000
   2340 C         181.2604  159.4270   29.3360 C.3     334      M_A    0.0000
   2341 O         180.1841  158.8594   28.5910 O.3     334      M_A    0.0000
   2342 H         179.5912  160.2675   30.4217 H       334      M_A    0.0000
   2343 H         180.9239  159.7023   31.4394 H       334      M_A    0.0000
   2344 H         181.8943  158.6287   29.7469 H       334      M_A    0.0000
   2345 H         181.8737  160.0643   28.6850 H       334      M_A    0.0000
   2346 C         179.0424  158.6995   29.4056 C.3     335      M_A    0.0000
   2347 C         178.3625  157.3506   29.2068 C.3     335      M_A    0.0000
   2348 O         177.1125  157.5604   28.5516 O.3     335      M_A    0.0000
   2349 H         178.3381  159.5118   29.1929 H       335      M_A    0.0000
   2350 H         179.3523  158.7934   30.4526 H       335      M_A    0.0000
   2351 H         178.1966  156.9041   30.1973 H       335      M_A    0.0000
   2352 H         178.9886  156.6705   28.6139 H       335      M_A    0.0000
   2353 C         176.1601  156.6091   28.9766 C.3     336      M_A    0.0000
   2354 C         176.7400  155.2043   29.0841 C.3     336      M_A    0.0000
   2355 O         176.0436  154.3511   28.1770 O.3     336      M_A    0.0000
   2356 H         175.3156  156.6160   28.2781 H       336      M_A    0.0000
   2357 H         175.7825  156.9167   29.9583 H       336      M_A    0.0000
   2358 H         176.5939  154.8540   30.1157 H       336      M_A    0.0000
   2359 H         177.8147  155.1966   28.8581 H       336      M_A    0.0000
   2360 C         175.9713  153.0357   28.6842 C.3     337      M_A    0.0000
   2361 C         176.6493  152.0174   27.7759 C.3     337      M_A    0.0000
   2362 O         175.7690  150.9095   27.5934 O.3     337      M_A    0.0000
   2363 H         174.9184  152.7688   28.8300 H       337      M_A    0.0000
   2364 H         176.4578  153.0194   29.6660 H       337      M_A    0.0000
   2365 H         177.5738  151.6847   28.2684 H       337      M_A    0.0000
   2366 H         176.9068  152.4576   26.8033 H       337      M_A    0.0000
   2367 C         176.4994  149.7117   27.4370 C.3     338      M_A    0.0000
   2368 C         175.7427  148.6626   26.6320 C.3     338      M_A    0.0000
   2369 O         175.7157  147.4460   27.3770 O.3     338      M_A    0.0000
   2370 H         176.7511  149.3174   28.4281 H       338      M_A    0.0000
   2371 H         177.4389  149.9474   26.9243 H       338      M_A    0.0000
   2372 H         176.2777  148.5101   25.6840 H       338      M_A    0.0000
   2373 H         174.7184  148.9906   26.4098 H       338      M_A    0.0000
   2374 C         175.3589  146.3606   26.5480 C.3     339      M_A    0.0000
   2375 C         174.7108  145.2187   27.3209 C.3     339      M_A    0.0000
   2376 O         175.5196  144.0520   27.1775 O.3     339      M_A    0.0000
   2377 H         176.2542  146.0028   26.0268 H       339      M_A    0.0000
   2378 H         174.6558  146.7244   25.7902 H       339      M_A    0.0000
   2379 H         173.7149  145.0397   26.8919 H       339      M_A    0.0000
   2380 H         174.5968  145.4692   28.3841 H       339      M_A    0.0000
   2381 C         176.5230  144.2564   26.2059 C.3     340      M_A    0.0000
   2382 C         177.0433  142.9521   25.6147 C.3     340      M_A    0.0000
   2383 O         178.0291  142.4123   26.4937 O.3     340      M_A    0.0000
   2384 H         177.3465  144.8199   26.6592 H       340      M_A    0.0000
   2385 H         176.1022  144.8710   25.4022 H       340      M_A    0.0000
   2386 H         177.4944  143.1773   24.6382 H       340      M_A    0.0000
   2387 H         176.2315  142.2269   25.4691 H       340      M_A    0.0000
   2388 C         178.3648  141.0937   26.1181 C.3     341      M_A    0.0000
   2389 C         178.1932  140.0962   27.2570 C.3     341      M_A    0.0000
   2390 O         179.0297  138.9678   27.0068 O.3     341      M_A    0.0000
   2391 H         179.3997  141.0799   25.7576 H       341      M_A    0.0000
   2392 H         177.7179  140.7994   25.2839 H       341      M_A    0.0000
   2393 H         177.1396  139.7843   27.2800 H       341      M_A    0.0000
   2394 H         178.4487  140.5468   28.2254 H       341      M_A    0.0000
   2395 C         178.4521  138.1238   26.0339 C.3     342      M_A    0.0000
   2396 C         177.7473  136.9188   26.6446 C.3     342      M_A    0.0000
   2397 O         178.5137  135.7489   26.3621 O.3     342      M_A    0.0000
   2398 H         179.2346  137.7922   25.3419 H       342      M_A    0.0000
   2399 H         177.7260  138.7097   25.4591 H       342      M_A    0.0000
   2400 H         176.7532  136.8364   26.1833 H       342      M_A    0.0000
   2401 H         177.6240  137.0350   27.7297 H       342      M_A    0.0000
   2402 C         178.0692  134.6602   27.1430 C.3     343      M_A    0.0000
   2403 C         177.5389  133.5085   26.2982 C.3     343      M_A    0.0000
   2404 O         176.7343  132.6680   27.1240 O.3     343      M_A    0.0000
   2405 H         177.2926  135.0113   27.8321 H       343      M_A    0.0000
   2406 H         178.9122  134.3036   27.7457 H       343      M_A    0.0000
   2407 H         178.4000  132.9437   25.9143 H       343      M_A    0.0000
   2408 H         176.9497  133.8749   25.4469 H       343      M_A    0.0000
   2409 C         175.7281  132.0352   26.3624 C.3     344      M_A    0.0000
   2410 C         175.1489  130.8090   27.0569 C.3     344      M_A    0.0000
   2411 O         175.7673  129.6422   26.5163 O.3     344      M_A    0.0000
   2412 H         176.1439  131.7554   25.3878 H       344      M_A    0.0000
   2413 H         174.9249  132.7595   26.1860 H       344      M_A    0.0000
   2414 H         174.0678  130.7857   26.8603 H       344      M_A    0.0000
   2415 H         175.3090  130.8510   28.1425 H       344      M_A    0.0000
   2416 C         175.0795  128.4786   26.9231 C.3     345      M_A    0.0000
   2417 C         175.9786  127.4899   27.6550 C.3     345      M_A    0.0000
   2418 O         175.7119  126.1776   27.1625 O.3     345      M_A    0.0000
   2419 H         174.6348  128.0027   26.0417 H       345      M_A    0.0000
   2420 H         174.2614  128.7783   27.5877 H       345      M_A    0.0000
   2421 H         175.7415  127.5437   28.7269 H       345      M_A    0.0000
   2422 H         177.0399  127.7355   27.5160 H       345      M_A    0.0000
   2423 C         176.2573  125.2008   28.0234 C.3     346      M_A    0.0000
   2424 C         177.1537  124.2084   27.2933 C.3     346      M_A    0.0000
   2425 O         177.8490  123.4226   28.2603 O.3     346      M_A    0.0000
   2426 H         175.4384  124.6718   28.5240 H       346      M_A    0.0000
   2427 H         176.8437  125.7125   28.7949 H       346      M_A    0.0000
   2428 H         177.8715  124.7797   26.6880 H       346      M_A    0.0000
   2429 H         176.5711  123.5573   26.6280 H       346      M_A    0.0000
   2430 C         178.9623  122.7813   27.6755 C.3     347      M_A    0.0000
   2431 C         178.8038  121.2672   27.6152 C.3     347      M_A    0.0000
   2432 O         179.7256  120.6739   28.5284 O.3     347      M_A    0.0000
   2433 H         179.8620  123.0440   28.2435 H       347      M_A    0.0000
   2434 H         179.0861  123.1691   26.6580 H       347      M_A    0.0000
   2435 H         179.0297  120.9421   26.5899 H       347      M_A    0.0000
   2436 H         177.7786  120.9619   27.8640 H       347      M_A    0.0000
   2437 C         181.0241  120.6398   27.9757 C.3     348      M_A    0.0000
   2438 C         181.1504  119.6405   26.8325 C.3     348      M_A    0.0000
   2439 O         182.2478  120.0266   26.0065 O.3     348      M_A    0.0000
   2440 H         181.7411  120.3982   28.7686 H       348      M_A    0.0000
   2441 H         181.2649  121.6420   27.6034 H       348      M_A    0.0000
   2442 H         180.2170  119.6673   26.2528 H       348      M_A    0.0000
   2443 H         181.3029  118.6199   27.2081 H       348      M_A    0.0000
   2444 C         181.7980  120.4051   24.7231 C.3     349      M_A    0.0000
   2445 C         181.1427  119.2560   23.9672 C.3     349      M_A    0.0000
   2446 O         181.5724  119.2989   22.6073 O.3     349      M_A    0.0000
   2447 H         182.6464  120.7976   24.1511 H       349      M_A    0.0000
   2448 H         181.0714  121.2172   24.8401 H       349      M_A    0.0000
   2449 H         180.0532  119.3911   24.0207 H       349      M_A    0.0000
   2450 H         181.3999  118.2857   24.4127 H       349      M_A    0.0000
   2451 C         181.2108  118.1133   21.9317 C.3     350      M_A    0.0000
   2452 C         180.5718  118.3815   20.5748 C.3     350      M_A    0.0000
   2453 O         179.4628  117.4993   20.4089 O.3     350      M_A    0.0000
   2454 H         180.5246  117.5393   22.5648 H       350      M_A    0.0000
   2455 H         182.1147  117.5105   21.7889 H       350      M_A    0.0000
   2456 H         181.3257  118.1862   19.7993 H       350      M_A    0.0000
   2457 H         180.2391  119.4245   20.4883 H       350      M_A    0.0000
   2458 C         179.1623  116.8415   21.6211 C.3     351      M_A    0.0000
   2459 C         178.6652  115.4168   21.4094 C.3     351      M_A    0.0000
   2460 O         178.3737  114.8401   22.6815 O.3     351      M_A    0.0000
   2461 H         178.4117  117.4257   22.1655 H       351      M_A    0.0000
   2462 H         180.0716  116.8162   22.2323 H       351      M_A    0.0000
   2463 H         179.4644  114.8479   20.9138 H       351      M_A    0.0000
   2464 H         177.7706  115.3957   20.7728 H       351      M_A    0.0000
   2465 C         177.0456  115.1242   23.0661 C.3     352      M_A    0.0000
   2466 C         176.2969  113.8890   23.5510 C.3     352      M_A    0.0000
   2467 O         176.4454  112.8536   22.5806 O.3     352      M_A    0.0000
   2468 H         176.5191  115.5753   22.2173 H       352      M_A    0.0000
   2469 H         177.0732  115.8657   23.8726 H       352      M_A    0.0000
   2470 H         175.2356  114.1543   23.6570 H       352      M_A    0.0000
   2471 H         176.6743  113.5490   24.5247 H       352      M_A    0.0000
   2472 C         175.8741  113.2384   21.3484 C.3     353      M_A    0.0000
   2473 C         174.4803  112.6594   21.1403 C.3     353      M_A    0.0000
   2474 O         174.1904  112.6552   19.7433 O.3     353      M_A    0.0000
   2475 H         176.5384  112.9238   20.5355 H       353      M_A    0.0000
   2476 H         175.8145  114.3324   21.3248 H       353      M_A    0.0000
   2477 H         173.7627  113.3013   21.6704 H       353      M_A    0.0000
   2478 H         174.4061  111.6404   21.5430 H       353      M_A    0.0000
   2479 C         173.0229  111.9075   19.4777 C.3     354      M_A    0.0000
   2480 C         171.9025  112.7559   18.8894 C.3     354      M_A    0.0000
   2481 O         171.0125  113.1307   19.9397 O.3     354      M_A    0.0000
   2482 H         172.6876  111.4313   20.4061 H       354      M_A    0.0000
   2483 H         173.2791  111.1116   18.7693 H       354      M_A    0.0000
   2484 H         171.3696  112.1472   18.1455 H       354      M_A    0.0000
   2485 H         172.2978  113.6525   18.3933 H       354      M_A    0.0000
   2486 C         169.7197  113.3836   19.4325 C.3     355      M_A    0.0000
   2487 C         169.3439  114.8590   19.4897 C.3     355      M_A    0.0000
   2488 O         168.6183  115.0999   20.6944 O.3     355      M_A    0.0000
   2489 H         168.9940  112.7874   19.9972 H       355      M_A    0.0000
   2490 H         169.6882  113.0463   18.3903 H       355      M_A    0.0000
   2491 H         168.7110  115.0828   18.6195 H       355      M_A    0.0000
   2492 H         170.2345  115.5005   19.4522 H       355      M_A    0.0000
   2493 C         167.9768  116.3565   20.6482 C.3     356      M_A    0.0000
   2494 C         168.6716  117.4033   21.5100 C.3     356      M_A    0.0000
   2495 O         167.6775  118.1926   22.1616 O.3     356      M_A    0.0000
   2496 H         166.9356  116.2354   20.9680 H       356      M_A    0.0000
   2497 H         167.9674  116.6987   19.6071 H       356      M_A    0.0000
   2498 H         169.2808  118.0371   20.8503 H       356      M_A    0.0000
   2499 H         169.3290  116.9359   22.2552 H       356      M_A    0.0000
   2500 C         168.1723  118.7164   23.3754 C.3     357      M_A    0.0000
   2501 C         167.1474  119.5746   24.1066 C.3     357      M_A    0.0000
   2502 O         167.6294  120.9165   24.1608 O.3     357      M_A    0.0000
   2503 H         169.0750  119.3022   23.1675 H       357      M_A    0.0000
   2504 H         168.4609  117.8775   24.0187 H       357      M_A    0.0000
   2505 H         167.0336  119.1756   25.1243 H       357      M_A    0.0000
   2506 H         166.1707  119.5456   23.6053 H       357      M_A    0.0000
   2507 C         166.5767  121.8143   24.4405 C.3     358      M_A    0.0000
   2508 C         166.8545  123.2231   23.9311 C.3     358      M_A    0.0000
   2509 O         167.0104  124.0924   25.0517 O.3     358      M_A    0.0000
   2510 H         166.4032  121.8319   25.5225 H       358      M_A    0.0000
   2511 H         165.6660  121.4344   23.9637 H       358      M_A    0.0000
   2512 H         165.9942  123.5418   23.3259 H       358      M_A    0.0000
   2513 H         167.7561  123.2515   23.3046 H       358      M_A    0.0000
   2514 C         166.4953  125.3749   24.7643 C.3     359      M_A    0.0000
   2515 C         166.8959  125.8729   23.3812 C.3     359      M_A    0.0000
   2516 O         167.8438  126.9287   23.5318 O.3     359      M_A    0.0000
   2517 H         166.8406  126.0764   25.5323 H       359      M_A    0.0000
   2518 H         165.4021  125.3269   24.8247 H       359      M_A    0.0000
   2519 H         165.9926  126.2485   22.8801 H       359      M_A    0.0000
   2520 H         167.3258  125.0651   22.7740 H       359      M_A    0.0000
   2521 C         168.6886  126.6874   24.6367 C.3     360      M_A    0.0000
   2522 C         169.3343  127.9594   25.1719 C.3     360      M_A    0.0000
   2523 O         170.5726  127.6176   25.7928 O.3     360      M_A    0.0000
   2524 H         169.4607  125.9675   24.3426 H       360      M_A    0.0000
   2525 H         168.0906  126.2277   25.4317 H       360      M_A    0.0000
   2526 H         168.6528  128.4013   25.9123 H       360      M_A    0.0000
   2527 H         169.5046  128.6898   24.3696 H       360      M_A    0.0000
   2528 C         171.2229  128.7724   26.2790 C.3     361      M_A    0.0000
   2529 C         172.7304  128.5896   26.4036 C.3     361      M_A    0.0000
   2530 O         173.0207  128.0483   27.6915 O.3     361      M_A    0.0000
   2531 H         170.7936  129.0385   27.2516 H       361      M_A    0.0000
   2532 H         171.0183  129.5979   25.5879 H       361      M_A    0.0000
   2533 H         173.2027  129.5762   26.2963 H       361      M_A    0.0000
   2534 H         173.1191  127.9256   25.6200 H       361      M_A    0.0000
   2535 C         173.4736  129.0585   28.5672 C.3     362      M_A    0.0000
   2536 C         172.3563  129.6344   29.4283 C.3     362      M_A    0.0000
   2537 O         172.9395  130.3433   30.5206 O.3     362      M_A    0.0000
   2538 H         173.9440  129.8541   27.9783 H       362      M_A    0.0000
   2539 H         174.2423  128.6282   29.2190 H       362      M_A    0.0000
   2540 H         171.7512  128.7976   29.8046 H       362      M_A    0.0000
   2541 H         171.7085  130.3046   28.8476 H       362      M_A    0.0000
   2542 C         173.5839  131.5150   30.0683 C.3     363      M_A    0.0000
   2543 C         175.0387  131.5952   30.5138 C.3     363      M_A    0.0000
   2544 O         175.2979  132.9130   30.9954 O.3     363      M_A    0.0000
   2545 H         173.0296  132.3878   30.4318 H       363      M_A    0.0000
   2546 H         173.5436  131.5277   28.9732 H       363      M_A    0.0000
   2547 H         175.6735  131.3827   29.6421 H       363      M_A    0.0000
   2548 H         175.2583  130.8581   31.2978 H       363      M_A    0.0000
   2549 C         176.5257  132.9583   31.6904 C.3     364      M_A    0.0000
   2550 C         177.2175  134.3107   31.5741 C.3     364      M_A    0.0000
   2551 O         178.6282  134.1112   31.6513 O.3     364      M_A    0.0000
   2552 H         177.1794  132.1661   31.3080 H       364      M_A    0.0000
   2553 H         176.3294  132.7463   32.7475 H       364      M_A    0.0000
   2554 H         176.8810  134.9381   32.4114 H       364      M_A    0.0000
   2555 H         176.9595  134.8125   30.6318 H       364      M_A    0.0000
   2556 C         179.3147  135.3357   31.5027 C.3     365      M_A    0.0000
   2557 C         180.7924  135.2280   31.8577 C.3     365      M_A    0.0000
   2558 O         181.3302  136.5438   31.9818 O.3     365      M_A    0.0000
   2559 H         178.8303  136.0925   32.1302 H       365      M_A    0.0000
   2560 H         179.2196  135.6578   30.4596 H       365      M_A    0.0000
   2561 H         181.2995  134.6909   31.0438 H       365      M_A    0.0000
   2562 H         180.9398  134.6715   32.7929 H       365      M_A    0.0000
   2563 C         180.9188  137.1390   33.1939 C.3     366      M_A    0.0000
   2564 C         180.8445  138.6584   33.1071 C.3     366      M_A    0.0000
   2565 O         182.0026  139.2096   33.7322 O.3     366      M_A    0.0000
   2566 H         181.6111  136.8401   33.9891 H       366      M_A    0.0000
   2567 H         179.9283  136.7462   33.4500 H       366      M_A    0.0000
   2568 H         179.9398  138.9856   33.6386 H       366      M_A    0.0000
   2569 H         180.7826  138.9971   32.0643 H       366      M_A    0.0000
   2570 C         181.9437  140.6199   33.7376 C.3     367      M_A    0.0000
   2571 C         183.2720  141.2652   33.3624 C.3     367      M_A    0.0000
   2572 O         183.2710  142.6156   33.8232 O.3     367      M_A    0.0000
   2573 H         181.6273  140.9582   34.7308 H       367      M_A    0.0000
   2574 H         181.1777  140.9340   33.0195 H       367      M_A    0.0000
   2575 H         183.3638  141.2426   32.2674 H       367      M_A    0.0000
   2576 H         184.1193  140.7194   33.7986 H       367      M_A    0.0000
   2577 C         184.5613  143.1788   33.7217 C.3     368      M_A    0.0000
   2578 C         184.7758  144.3352   34.6903 C.3     368      M_A    0.0000
   2579 O         184.4998  145.5589   34.0103 O.3     368      M_A    0.0000
   2580 H         184.7215  143.5155   32.6911 H       368      M_A    0.0000
   2581 H         185.2959  142.3937   33.9332 H       368      M_A    0.0000
   2582 H         185.8253  144.3157   35.0161 H       368      M_A    0.0000
   2583 H         184.1305  144.2419   35.5740 H       368      M_A    0.0000
   2584 C         185.1600  146.6380   34.6365 C.3     369      M_A    0.0000
   2585 C         184.3011  147.3181   35.6953 C.3     369      M_A    0.0000
   2586 O         184.3868  148.7310   35.5158 O.3     369      M_A    0.0000
   2587 H         185.4595  147.3631   33.8712 H       369      M_A    0.0000
   2588 H         186.0724  146.2552   35.1074 H       369      M_A    0.0000
   2589 H         184.6957  147.0409   36.6829 H       369      M_A    0.0000
   2590 H         183.2540  146.9934   35.6303 H       369      M_A    0.0000
   2591 C         183.4238  149.3942   36.3066 C.3     370      M_A    0.0000
   2592 C         183.6174  150.9054   36.3245 C.3     370      M_A    0.0000
   2593 O         183.5759  151.3560   37.6776 O.3     370      M_A    0.0000
   2594 H         183.4673  148.9964   37.3269 H       370      M_A    0.0000
   2595 H         182.4313  149.1653   35.9022 H       370      M_A    0.0000
   2596 H         182.7966  151.3603   35.7523 H       370      M_A    0.0000
   2597 H         184.5711  151.1921   35.8615 H       370      M_A    0.0000
   2598 C         183.0969  152.6820   37.7479 C.3     371      M_A    0.0000
   2599 C         184.1139  153.7017   37.2505 C.3     371      M_A    0.0000
   2600 O         184.2215  154.7481   38.2144 O.3     371      M_A    0.0000
   2601 H         182.8164  152.9036   38.7839 H       371      M_A    0.0000
   2602 H         182.1907  152.7522   37.1356 H       371      M_A    0.0000
   2603 H         183.7502  154.1070   36.2958 H       371      M_A    0.0000
   2604 H         185.0963  153.2393   37.0858 H       371      M_A    0.0000
   2605 C         185.3809  155.5203   37.9858 C.3     372      M_A    0.0000
   2606 C         185.0622  156.9596   37.6010 C.3     372      M_A    0.0000
   2607 O         186.2700  157.6039   37.1986 O.3     372      M_A    0.0000
   2608 H         185.9761  155.0427   37.1992 H       372      M_A    0.0000
   2609 H         185.9801  155.5193   38.9033 H       372      M_A    0.0000
   2610 H         184.6446  157.4633   38.4841 H       372      M_A    0.0000
   2611 H         184.3242  157.0027   36.7888 H       372      M_A    0.0000
   2612 C         187.3873  157.0000   37.8147 C.3     373      M_A    0.0000
   2613 C         188.4109  158.0175   38.3029 C.3     373      M_A    0.0000
   2614 O         189.4299  158.1524   37.3133 O.3     373      M_A    0.0000
   2615 H         187.8531  156.3075   37.1044 H       373      M_A    0.0000
   2616 H         187.0320  156.4118   38.6684 H       373      M_A    0.0000
   2617 H         188.8452  157.6406   39.2396 H       373      M_A    0.0000
   2618 H         187.9444  158.9924   38.4980 H       373      M_A    0.0000
   2619 C         189.7477  159.5120   37.1060 C.3     374      M_A    0.0000
   2620 C         190.9784  159.9539   37.8880 C.3     374      M_A    0.0000
   2621 O         190.8580  161.3447   38.1831 O.3     374      M_A    0.0000
   2622 H         188.8833  160.1252   37.3851 H       374      M_A    0.0000
   2623 H         189.9305  159.6622   36.0359 H       374      M_A    0.0000
   2624 H         191.8622  159.7793   37.2585 H       374      M_A    0.0000
   2625 H         191.0889  159.3802   38.8179 H       374      M_A    0.0000
   2626 C         190.7682  161.5536   39.5763 C.3     375      M_A    0.0000
   2627 C         189.9287  162.7735   39.9349 C.3     375      M_A    0.0000
   2628 O         189.5793  162.6984   41.3162 O.3     375      M_A    0.0000
   2629 H         191.7795  161.6584   39.9853 H       375      M_A    0.0000
   2630 H         190.3170  160.6631   40.0283 H       375      M_A    0.0000
   2631 H         189.0202  162.7549   39.3167 H       375      M_A    0.0000
   2632 H         190.4724  163.7064   39.7345 H       375      M_A    0.0000
   2633 C         188.9243  163.8782   41.7305 C.3     376      M_A    0.0000
   2634 C         187.5006  163.6231   42.2093 C.3     376      M_A    0.0000
   2635 O         186.8057  164.8681   42.2625 O.3     376      M_A    0.0000
   2636 H         188.9204  164.5925   40.8994 H       376      M_A    0.0000
   2637 H         189.5028  164.3225   42.5484 H       376      M_A    0.0000
   2638 H         187.5537  163.1800   43.2137 H       376      M_A    0.0000
   2639 H         186.9735  162.9262   41.5440 H       376      M_A    0.0000
   2640 C         185.5289  164.7031   42.8413 C.3     377      M_A    0.0000
   2641 C         184.5439  165.7825   42.4101 C.3     377      M_A    0.0000
   2642 O         183.6236  166.0143   43.4755 O.3     377      M_A    0.0000
   2643 H         185.6315  164.7004   43.9325 H       377      M_A    0.0000
   2644 H         185.1403  163.7233   42.5413 H       377      M_A    0.0000
   2645 H         184.0068  165.4182   41.5231 H       377      M_A    0.0000
   2646 H         185.0613  166.7157   42.1502 H       377      M_A    0.0000
   2647 C         182.7739  167.1004   43.1741 C.3     378      M_A    0.0000
   2648 C         182.0485  167.6376   44.4016 C.3     378      M_A    0.0000
   2649 O         180.7910  166.9735   44.5170 O.3     378      M_A    0.0000
   2650 H         182.0486  166.7840   42.4159 H       378      M_A    0.0000
   2651 H         183.3822  167.9013   42.7388 H       378      M_A    0.0000
   2652 H         181.8914  168.7160   44.2590 H       378      M_A    0.0000
   2653 H         182.6397  167.4851   45.3144 H       378      M_A    0.0000
   2654 C         180.5625  166.5647   45.8487 C.3     379      M_A    0.0000
   2655 C         181.5273  165.4766   46.3034 C.3     379      M_A    0.0000
   2656 O         181.1711  165.0721   47.6245 O.3     379      M_A    0.0000
   2657 H         179.5283  166.2137   45.9397 H       379      M_A    0.0000
   2658 H         180.6758  167.4386   46.5000 H       379      M_A    0.0000
   2659 H         182.5419  165.8991   46.3012 H       379      M_A    0.0000
   2660 H         181.5038  164.6124   45.6261 H       379      M_A    0.0000
   2661 C         181.0903  166.1889   48.4840 C.3     380      M_A    0.0000
   2662 C         181.2679  165.8162   49.9506 C.3     380      M_A    0.0000
   2663 O         180.7490  166.8725   50.7573 O.3     380      M_A    0.0000
   2664 H         180.1232  166.6825   48.3348 H       380      M_A    0.0000
   2665 H         181.8741  166.8994   48.1978 H       380      M_A    0.0000
   2666 H         182.3429  165.6914   50.1421 H       380      M_A    0.0000
   2667 H         180.7557  164.8743   50.1889 H       380      M_A    0.0000
   2668 C         180.6253  166.4597   52.1015 C.3     381      M_A    0.0000
   2669 C         179.7856  167.4187   52.9361 C.3     381      M_A    0.0000
   2670 O         180.6511  168.3807   53.5370 O.3     381      M_A    0.0000
   2671 H         181.6266  166.3596   52.5356 H       381      M_A    0.0000
   2672 H         180.1566  165.4692   52.1144 H       381      M_A    0.0000
   2673 H         179.2756  166.8346   53.7150 H       381      M_A    0.0000
   2674 H         179.0283  167.9251   52.3227 H       381      M_A    0.0000
   2675 C         180.1016  168.8610   54.7453 C.3     382      M_A    0.0000
   2676 C         178.8106  169.6422   54.5344 C.3     382      M_A    0.0000
   2677 O         179.1297  171.0268   54.4044 O.3     382      M_A    0.0000
   2678 H         180.8450  169.4899   55.2481 H       382      M_A    0.0000
   2679 H         179.8982  168.0022   55.3949 H       382      M_A    0.0000
   2680 H         178.1708  169.4858   55.4142 H       382      M_A    0.0000
   2681 H         178.2737  169.2944   53.6417 H       382      M_A    0.0000
   2682 C         178.0590  171.8303   54.8523 C.3     383      M_A    0.0000
   2683 C         176.6981  171.2673   54.4617 C.3     383      M_A    0.0000
   2684 O         176.1468  172.0800   53.4266 O.3     383      M_A    0.0000
   2685 H         178.1796  172.8410   54.4462 H       383      M_A    0.0000
   2686 H         178.1169  171.9013   55.9443 H       383      M_A    0.0000
   2687 H         176.0498  171.2986   55.3486 H       383      M_A    0.0000
   2688 H         176.7786  170.2266   54.1204 H       383      M_A    0.0000
   2689 C         174.7373  172.0957   53.5013 C.3     384      M_A    0.0000
   2690 C         174.0747  171.6451   52.2054 C.3     384      M_A    0.0000
   2691 O         172.6875  171.9742   52.2623 O.3     384      M_A    0.0000
   2692 H         174.4069  173.1077   53.7617 H       384      M_A    0.0000
   2693 H         174.4293  171.4262   54.3124 H       384      M_A    0.0000
   2694 H         174.1987  170.5564   52.1206 H       384      M_A    0.0000
   2695 H         174.5390  172.1219   51.3318 H       384      M_A    0.0000
   2696 C         172.4888  173.3469   52.0000 C.3     385      M_A    0.0000
   2697 C         171.7306  174.0549   53.1159 C.3     385      M_A    0.0000
   2698 O         170.4340  174.4076   52.6360 O.3     385      M_A    0.0000
   2699 H         171.9496  173.4527   51.0517 H       385      M_A    0.0000
   2700 H         173.4705  173.8186   51.8790 H       385      M_A    0.0000
   2701 H         172.2903  174.9616   53.3853 H       385      M_A    0.0000
   2702 H         171.6418  173.4179   54.0061 H       385      M_A    0.0000
   2703 C         169.5187  174.5177   53.7049 C.3     386      M_A    0.0000
   2704 C         169.0718  175.9535   53.9506 C.3     386      M_A    0.0000
   2705 O         169.3530  176.2945   55.3072 O.3     386      M_A    0.0000
   2706 H         169.9791  174.1060   54.6103 H       386      M_A    0.0000
   2707 H         168.6412  173.9049   53.4697 H       386      M_A    0.0000
   2708 H         167.9896  176.0090   53.7665 H       386      M_A    0.0000
   2709 H         169.5809  176.6525   53.2736 H       386      M_A    0.0000
   2710 C         168.5131  177.3418   55.7433 C.3     387      M_A    0.0000
   2711 C         169.2010  178.7008   55.7076 C.3     387      M_A    0.0000
   2712 O         169.9275  178.8780   56.9227 O.3     387      M_A    0.0000
   2713 H         168.1682  177.1204   56.7597 H       387      M_A    0.0000
   2714 H         167.6324  177.3691   55.0917 H       387      M_A    0.0000
   2715 H         168.4241  179.4731   55.6190 H       387      M_A    0.0000
   2716 H         169.8796  178.7833   54.8480 H       387      M_A    0.0000
   2717 C         169.9186  180.2334   57.3168 C.3     388      M_A    0.0000
   2718 C         171.1290  181.0030   56.8029 C.3     388      M_A    0.0000
   2719 O         172.2770  180.6014   57.5490 O.3     388      M_A    0.0000
   2720 H         169.8757  180.2848   58.4107 H       388      M_A    0.0000
   2721 H         169.0065  180.6983   56.9258 H       388      M_A    0.0000
   2722 H         170.9397  182.0751   56.9540 H       388      M_A    0.0000
   2723 H         171.2936  180.8215   55.7324 H       388      M_A    0.0000
   2724 C         172.4555  181.4319   58.6764 C.3     389      M_A    0.0000
   2725 C         172.5570  182.9073   58.3096 C.3     389      M_A    0.0000
   2726 O         173.7244  183.4520   58.9230 O.3     389      M_A    0.0000
   2727 H         173.3569  181.1138   59.2125 H       389      M_A    0.0000
   2728 H         171.6011  181.2878   59.3473 H       389      M_A    0.0000
   2729 H         171.6606  183.4153   58.6921 H       389      M_A    0.0000
   2730 H         172.6039  183.0467   57.2213 H       389      M_A    0.0000
   2731 C         173.7689  184.8530   58.7558 C.3     390      M_A    0.0000
   2732 C         173.7424  185.2713   57.2910 C.3     390      M_A    0.0000
   2733 O         174.7334  184.5266   56.5845 O.3     390      M_A    0.0000
   2734 H         174.6714  185.2400   59.2423 H       390      M_A    0.0000
   2735 H         172.9027  185.2872   59.2678 H       390      M_A    0.0000
   2736 H         173.9725  186.3448   57.2396 H       390      M_A    0.0000
   2737 H         172.7539  185.1009   56.8439 H       390      M_A    0.0000
   2738 C         175.6898  183.9958   57.4769 C.3     391      M_A    0.0000
   2739 C         175.9916  184.9322   58.6402 C.3     391      M_A    0.0000
   2740 O         177.0418  185.8177   58.2542 O.3     391      M_A    0.0000
   2741 H         176.6088  183.7752   56.9221 H       391      M_A    0.0000
   2742 H         175.3033  183.0489   57.8705 H       391      M_A    0.0000
   2743 H         176.3122  184.3203   59.4951 H       391      M_A    0.0000
   2744 H         175.1027  185.5074   58.9320 H       391      M_A    0.0000
   2745 C         176.5248  186.9328   57.5600 C.3     392      M_A    0.0000
   2746 C         176.7969  188.2494   58.2769 C.3     392      M_A    0.0000
   2747 O         175.7757  189.1816   57.9250 O.3     392      M_A    0.0000
   2748 H         175.4466  186.7953   57.4203 H       392      M_A    0.0000
   2749 H         176.9877  186.9635   56.5672 H       392      M_A    0.0000
   2750 H         177.7758  188.6221   57.9439 H       392      M_A    0.0000
   2751 H         176.8234  188.1138   59.3664 H       392      M_A    0.0000
   2752 C         175.8297  190.3198   58.7582 C.3     393      M_A    0.0000
   2753 C         174.4893  191.0366   58.8620 C.3     393      M_A    0.0000
   2754 O         174.7261  192.4039   59.1938 O.3     393      M_A    0.0000
   2755 H         176.5947  191.0044   58.3745 H       393      M_A    0.0000
   2756 H         176.1422  189.9984   59.7581 H       393      M_A    0.0000
   2757 H         173.9058  190.5531   59.6581 H       393      M_A    0.0000
   2758 H         173.9258  190.9697   57.9217 H       393      M_A    0.0000
   2759 C         173.9114  192.8038   60.2751 C.3     394      M_A    0.0000
   2760 C         173.4848  194.2634   60.1814 C.3     394      M_A    0.0000
   2761 O         174.1040  194.9900   61.2418 O.3     394      M_A    0.0000
   2762 H         174.4532  192.6286   61.2114 H       394      M_A    0.0000
   2763 H         173.0178  192.1695   60.2841 H       394      M_A    0.0000
   2764 H         172.3916  194.3057   60.2861 H       394      M_A    0.0000
   2765 H         173.7633  194.7004   59.2131 H       394      M_A    0.0000
   2766 C         173.2803  196.0556   61.6646 C.3     395      M_A    0.0000
   2767 C         173.8488  197.4202   61.2958 C.3     395      M_A    0.0000
   2768 O         173.9870  198.1951   62.4859 O.3     395      M_A    0.0000
   2769 H         173.1394  195.9864   62.7493 H       395      M_A    0.0000
   2770 H         172.2980  195.9377   61.1932 H       395      M_A    0.0000
   2771 H         173.1425  197.9088   60.6100 H       395      M_A    0.0000
   2772 H         174.8206  197.3262   60.7930 H       395      M_A    0.0000
   2773 C         174.9190  199.2384   62.2970 C.3     396      M_A    0.0000
   2774 C         176.3516  198.7329   62.1801 C.3     396      M_A    0.0000
   2775 O         177.2419  199.8220   62.4190 O.3     396      M_A    0.0000
   2776 H         174.8351  199.9445   63.1309 H       396      M_A    0.0000
   2777 H         174.6525  199.7743   61.3790 H       396      M_A    0.0000
   2778 H         176.4944  198.3483   61.1605 H       396      M_A    0.0000
   2779 H         176.5492  197.9219   62.8938 H       396      M_A    0.0000
   2780 C         176.5627  201.0549   62.3130 C.3     397      M_A    0.0000
   2781 C         177.4760  202.1937   61.8769 C.3     397      M_A    0.0000
   2782 O         177.8588  202.9407   63.0306 O.3     397      M_A    0.0000
   2783 H         176.1015  201.2902   63.2790 H       397      M_A    0.0000
   2784 H         175.7572  200.9407   61.5788 H       397      M_A    0.0000
   2785 H         176.9129  202.8352   61.1845 H       397      M_A    0.0000
   2786 H         178.3683  201.8156   61.3603 H       397      M_A    0.0000
   2787 C         179.2464  203.1998   63.0200 C.3     398      M_A    0.0000
   2788 C         179.5692  204.6802   63.1800 C.3     398      M_A    0.0000
   2789 O         180.8965  204.9124   62.7108 O.3     398      M_A    0.0000
   2790 H         179.6712  202.8203   62.0837 H       398      M_A    0.0000
   2791 H         179.7058  202.6422   63.8439 H       398      M_A    0.0000
   2792 H         179.4999  204.9299   64.2481 H       398      M_A    0.0000
   2793 H         178.8587  205.3071   62.6247 H       398      M_A    0.0000
   2794 C         181.4368  206.0774   63.2970 C.3     399      M_A    0.0000
   2795 C         182.5246  206.7155   62.4420 C.3     399      M_A    0.0000
   2796 O         183.2967  207.5911   63.2624 O.3     399      M_A    0.0000
   2797 H         181.8344  205.8252   64.2866 H       399      M_A    0.0000
   2798 H         180.6239  206.7986   63.4389 H       399      M_A    0.0000
   2799 H         182.0358  207.2865   61.6401 H       399      M_A    0.0000
   2800 H         183.1741  205.9552   61.9878 H       399      M_A    0.0000
   2801 C         183.4651  208.8443   62.6348 C.3     400      M_A    0.0000
   2802 C         184.6968  209.5902   63.1327 C.3     400      M_A    0.0000
   2803 O         184.3089  210.4517   64.2018 O.3     400      M_A    0.0000
   2804 H         182.5657  209.4482   62.8010 H       400      M_A    0.0000
   2805 H         183.5593  208.6776   61.5558 H       400      M_A    0.0000
   2806 H         185.0952  210.1842   62.2981 H       400      M_A    0.0000
   2807 H         185.4753  208.8946   63.4735 H       400      M_A    0.0000
   2808 C         185.1662  210.2879   65.3113 C.3     401      M_A    0.0000
   2809 C         185.4064  211.5896   66.0658 C.3     401      M_A    0.0000
   2810 O         186.7643  211.6213   66.5027 O.3     401      M_A    0.0000
   2811 H         186.1189  209.8713   64.9652 H       401      M_A    0.0000
   2812 H         184.7116  209.5587   65.9913 H       401      M_A    0.0000
   2813 H         184.7325  211.6090   66.9338 H       401      M_A    0.0000
   2814 H         185.1937  212.4630   65.4348 H       401      M_A    0.0000
   2815 C         187.1032  212.9030   66.9873 C.3     402      M_A    0.0000
   2816 C         188.6072  213.1463   67.0045 C.3     402      M_A    0.0000
   2817 O         188.8657  214.3646   67.7008 O.3     402      M_A    0.0000
   2818 H         186.6904  213.0219   67.9956 H       402      M_A    0.0000
   2819 H         186.6270  213.6504   66.3427 H       402      M_A    0.0000
   2820 H         188.9503  213.2291   65.9637 H       402      M_A    0.0000
   2821 H         189.1413  212.3167   67.4868 H       402      M_A    0.0000
   2822 C         189.0180  215.4355   66.7939 C.3     403      M_A    0.0000
   2823 C         189.8968  216.5517   67.3444 C.3     403      M_A    0.0000
   2824 O         189.0588  217.5487   67.9271 O.3     403      M_A    0.0000
   2825 H         188.0271  215.8273   66.5377 H       403      M_A    0.0000
   2826 H         189.4692  215.0450   65.8747 H       403      M_A    0.0000
   2827 H         190.4649  216.9816   66.5075 H       403      M_A    0.0000
   2828 H         190.6050  216.1713   68.0927 H       403      M_A    0.0000
   2829 C         189.8253  218.4767   68.6647 C.3     404      M_A    0.0000
   2830 C         190.4360  217.8680   69.9209 C.3     404      M_A    0.0000
   2831 O         190.7386  218.9186   70.8377 O.3     404      M_A    0.0000
   2832 H         189.1909  219.3303   68.9293 H       404      M_A    0.0000
   2833 H         190.6295  218.8473   68.0191 H       404      M_A    0.0000
   2834 H         191.3586  217.3453   69.6316 H       404      M_A    0.0000
   2835 H         189.7533  217.1458   70.3882 H       404      M_A    0.0000
   2836 C         190.7745  220.1646   70.1753 C.3     405      M_A    0.0000
   2837 C         191.1013  221.3199   71.1133 C.3     405      M_A    0.0000
   2838 O         189.9487  222.1525   71.2326 O.3     405      M_A    0.0000
   2839 H         189.8075  220.3359   69.6888 H       405      M_A    0.0000
   2840 H         191.5375  220.1140   69.3904 H       405      M_A    0.0000
   2841 H         191.9320  221.8900   70.6742 H       405      M_A    0.0000
   2842 H         191.4074  220.9569   72.1036 H       405      M_A    0.0000
   2843 C         190.1160  223.0906   72.2741 C.3     406      M_A    0.0000
   2844 C         188.7900  223.5828   72.8405 C.3     406      M_A    0.0000
   2845 O         188.9190  224.9645   73.1726 O.3     406      M_A    0.0000
   2846 H         190.7031  223.9365   71.8988 H       406      M_A    0.0000
   2847 H         190.6928  222.6146   73.0751 H       406      M_A    0.0000
   2848 H         188.5687  222.9988   73.7449 H       406      M_A    0.0000
   2849 H         187.9715  223.4435   72.1218 H       406      M_A    0.0000
   2850 C         187.6584  225.5270   73.4674 C.3     407      M_A    0.0000
   2851 C         187.5719  227.0024   73.0971 C.3     407      M_A    0.0000
   2852 O         186.9773  227.7125   74.1825 O.3     407      M_A    0.0000
   2853 H         187.4512  225.3935   74.5353 H       407      M_A    0.0000
   2854 H         186.8961  224.9724   72.9086 H       407      M_A    0.0000
   2855 H         186.9423  227.0917   72.2007 H       407      M_A    0.0000
   2856 H         188.5638  227.4178   72.8741 H       407      M_A    0.0000
   2857 C         186.6908  229.0439   73.8110 C.3     408      M_A    0.0000
   2858 C         187.9450  229.8971   73.6679 C.3     408      M_A    0.0000
   2859 O         187.5707  231.2729   73.7190 O.3     408      M_A    0.0000
   2860 H         186.0186  229.4836   74.5566 H       408      M_A    0.0000
   2861 H         186.1589  229.0258   72.8531 H       408      M_A    0.0000
   2862 H         188.4026  229.6687   72.6951 H       408      M_A    0.0000
   2863 H         188.6724  229.6754   74.4603 H       408      M_A    0.0000
   2864 C         188.7108  232.0965   73.8388 C.3     409      M_A    0.0000
   2865 C         188.5113  233.2361   74.8303 C.3     409      M_A    0.0000
   2866 O         188.6117  234.4750   74.1296 O.3     409      M_A    0.0000
   2867 H         188.9652  232.4966   72.8507 H       409      M_A    0.0000
   2868 H         189.5495  231.4749   74.1721 H       409      M_A    0.0000
   2869 H         189.3033  233.1692   75.5893 H       409      M_A    0.0000
   2870 H         187.5363  233.1649   75.3308 H       409      M_A    0.0000
   2871 C         188.0000  235.5145   74.8630 C.3     410      M_A    0.0000
   2872 C         188.6309  236.8748   74.5928 C.3     410      M_A    0.0000
   2873 O         188.0477  237.8330   75.4746 O.3     410      M_A    0.0000
   2874 H         188.0585  235.2772   75.9314 H       410      M_A    0.0000
   2875 H         186.9399  235.5506   74.5878 H       410      M_A    0.0000
   2876 H         188.4184  237.1471   73.5494 H       410      M_A    0.0000
   2877 H         189.7195  236.8463   74.7350 H       410      M_A    0.0000
   2878 C         186.7077  238.0924   75.1144 C.3     411      M_A    0.0000
   2879 C         186.4697  239.5517   74.7466 C.3     411      M_A    0.0000
   2880 O         185.7778  240.1872   75.8204 O.3     411      M_A    0.0000
   2881 H         186.0542  237.8014   75.9447 H       411      M_A    0.0000
   2882 H         186.4551  237.4609   74.2551 H       411      M_A    0.0000
   2883 H         185.8541  239.5771   73.8365 H       411      M_A    0.0000
   2884 H         187.4153  240.0734   74.5472 H       411      M_A    0.0000
   2885 C         185.7516  241.5869   75.6387 C.3     412      M_A    0.0000
   2886 C         187.1272  242.2249   75.7875 C.3     412      M_A    0.0000
   2887 O         186.9597  243.5910   76.1635 O.3     412      M_A    0.0000
   2888 H         185.0526  242.0254   76.3600 H       412      M_A    0.0000
   2889 H         185.3671  241.7951   74.6339 H       412      M_A    0.0000
   2890 H         187.6376  242.1630   74.8161 H       412      M_A    0.0000
   2891 H         187.7328  241.6996   76.5380 H       412      M_A    0.0000
   2892 C         188.1932  244.1568   76.5523 C.3     413      M_A    0.0000
   2893 C         188.0319  245.2660   77.5843 C.3     413      M_A    0.0000
   2894 O         188.1200  246.5255   76.9198 O.3     413      M_A    0.0000
   2895 H         188.7036  244.5413   75.6620 H       413      M_A    0.0000
   2896 H         188.8169  243.3615   76.9760 H       413      M_A    0.0000
   2897 H         188.8461  245.1704   78.3164 H       413      M_A    0.0000
   2898 H         187.0721  245.1852   78.1119 H       413      M_A    0.0000
   2899 C         187.3937  247.5120   77.6211 C.3     414      M_A    0.0000
   2900 C         188.1440  248.8343   77.7215 C.3     414      M_A    0.0000
   2901 O         187.3890  249.7280   78.5383 O.3     414      M_A    0.0000
   2902 H         187.1588  247.1348   78.6229 H       414      M_A    0.0000
   2903 H         186.4455  247.6773   77.0970 H       414      M_A    0.0000
   2904 H         188.2439  249.2465   76.7076 H       414      M_A    0.0000
   2905 H         189.1473  248.6938   78.1454 H       414      M_A    0.0000
   2906 C         186.0502  249.2940   78.6480 C.3     415      M_A    0.0000
   2907 C         185.0709  250.4477   78.8250 C.3     415      M_A    0.0000
   2908 O         184.6316  250.4709   80.1823 O.3     415      M_A    0.0000
   2909 H         185.9704  248.5988   79.4915 H       415      M_A    0.0000
   2910 H         185.7927  248.7425   77.7367 H       415      M_A    0.0000
   2911 H         184.2157  250.2734   78.1569 H       415      M_A    0.0000
   2912 H         185.5331  251.4087   78.5626 H       415      M_A    0.0000
   2913 C         183.2791  250.8668   80.2628 C.3     416      M_A    0.0000
   2914 C         182.9626  252.0625   79.3731 C.3     416      M_A    0.0000
   2915 O         182.9934  253.2462   80.1693 O.3     416      M_A    0.0000
   2916 H         183.0388  251.0994   81.3065 H       416      M_A    0.0000
   2917 H         182.6548  250.0191   79.9586 H       416      M_A    0.0000
   2918 H         181.9567  251.9182   78.9544 H       416      M_A    0.0000
   2919 H         183.6801  252.1468   78.5459 H       416      M_A    0.0000
   2920 C         184.1026  254.0495   79.8271 C.3     417      M_A    0.0000
   2921 C         184.0930  255.3978   80.5365 C.3     417      M_A    0.0000
   2922 O         184.6870  256.3706   79.6782 O.3     417      M_A    0.0000
   2923 H         184.1140  254.1949   78.7409 H       417      M_A    0.0000
   2924 H         185.0154  253.5079   80.0999 H       417      M_A    0.0000
   2925 H         184.6830  255.3011   81.4588 H       417      M_A    0.0000
   2926 H         183.0720  255.7033   80.8016 H       417      M_A    0.0000
   2927 C         183.7991  256.7306   78.6416 C.3     418      M_A    0.0000
   2928 C         184.1849  258.0403   77.9653 C.3     418      M_A    0.0000
   2929 O         183.6443  259.1225   78.7219 O.3     418      M_A    0.0000
   2930 H         182.7852  256.8022   79.0515 H       418      M_A    0.0000
   2931 H         183.8002  255.9283   77.8950 H       418      M_A    0.0000
   2932 H         183.7566  258.0394   76.9531 H       418      M_A    0.0000
   2933 H         185.2754  258.1439   77.8866 H       418      M_A    0.0000
   2934 C         184.6577  259.7712   79.4598 C.3     419      M_A    0.0000
   2935 C         185.3177  258.8553   80.4830 C.3     419      M_A    0.0000
   2936 O         186.4217  259.5439   81.0687 O.3     419      M_A    0.0000
   2937 H         184.2278  260.6468   79.9594 H       419      M_A    0.0000
   2938 H         185.4182  260.1292   78.7568 H       419      M_A    0.0000
   2939 H         185.6719  257.9574   79.9573 H       419      M_A    0.0000
   2940 H         184.6079  258.5499   81.2634 H       419      M_A    0.0000
   2941 C         187.3887  259.8604   80.0903 C.3     420      M_A    0.0000
   2942 C         188.7261  260.2682   80.6958 C.3     420      M_A    0.0000
   2943 O         188.7770  261.6918   80.7760 O.3     420      M_A    0.0000
   2944 H         187.0011  260.6653   79.4555 H       420      M_A    0.0000
   2945 H         187.5367  258.9788   79.4564 H       420      M_A    0.0000
   2946 H         189.5244  259.9008   80.0358 H       420      M_A    0.0000
   2947 H         188.8638  259.8299   81.6933 H       420      M_A    0.0000
   2948 C         189.6627  262.1031   81.7953 C.3     421      M_A    0.0000
   2949 C         188.9454  262.7637   82.9661 C.3     421      M_A    0.0000
   2950 O         189.2564  264.1562   82.9664 O.3     421      M_A    0.0000
   2951 H         190.4004  262.7918   81.3680 H       421      M_A    0.0000
   2952 H         190.2021  261.2207   82.1577 H       421      M_A    0.0000
   2953 H         189.3079  262.2982   83.8934 H       421      M_A    0.0000
   2954 H         187.8585  262.6209   82.9015 H       421      M_A    0.0000
   2955 C         188.2569  264.8909   83.6400 C.3     422      M_A    0.0000
   2956 C         186.9443  264.9425   82.8681 C.3     422      M_A    0.0000
   2957 O         186.1821  266.0545   83.3354 O.3     422      M_A    0.0000
   2958 H         188.6261  265.9062   83.8244 H       422      M_A    0.0000
   2959 H         188.0815  264.4188   84.6133 H       422      M_A    0.0000
   2960 H         186.3998  264.0073   83.0602 H       422      M_A    0.0000
   2961 H         187.1187  265.0334   81.7877 H       422      M_A    0.0000
   2962 C         186.9700  266.8907   84.1556 C.3     423      M_A    0.0000
   2963 C         186.1399  267.6810   85.1594 C.3     423      M_A    0.0000
   2964 O         186.0348  269.0295   84.7052 O.3     423      M_A    0.0000
   2965 H         187.5431  267.5743   83.5189 H       423      M_A    0.0000
   2966 H         187.6857  266.2629   84.6984 H       423      M_A    0.0000
   2967 H         186.6581  267.6507   86.1281 H       423      M_A    0.0000
   2968 H         185.1389  267.2460   85.2813 H       423      M_A    0.0000
   2969 C         184.8279  269.6129   85.1477 C.3     424      M_A    0.0000
   2970 C         184.5336  270.9434   84.4662 C.3     424      M_A    0.0000
   2971 O         183.7733  271.7564   85.3590 O.3     424      M_A    0.0000
   2972 H         184.8765  269.7482   86.2342 H       424      M_A    0.0000
   2973 H         184.0111  268.9137   84.9357 H       424      M_A    0.0000
   2974 H         183.9509  270.7384   83.5572 H       424      M_A    0.0000
   2975 H         185.4596  271.4610   84.1821 H       424      M_A    0.0000
   2976 C         183.1259  272.7968   84.6583 C.3     425      M_A    0.0000
   2977 C         183.3891  274.1684   85.2674 C.3     425      M_A    0.0000
   2978 O         182.1474  274.7234   85.6986 O.3     425      M_A    0.0000
   2979 H         182.0491  272.5940   84.6369 H       425      M_A    0.0000
   2980 H         183.4865  272.7896   83.6234 H       425      M_A    0.0000
   2981 H         183.8353  274.8055   84.4909 H       425      M_A    0.0000
   2982 H         184.0862  274.1034   86.1135 H       425      M_A    0.0000
   2983 C         182.3549  275.9421   86.3801 C.3     426      M_A    0.0000
   2984 C         183.0261  275.7513   87.7345 C.3     426      M_A    0.0000
   2985 O         182.8752  276.9504   88.4929 O.3     426      M_A    0.0000
   2986 H         181.3906  276.4476   86.5050 H       426      M_A    0.0000
   2987 H         182.9874  276.5818   85.7541 H       426      M_A    0.0000
   2988 H         184.0924  275.5494   87.5603 H       426      M_A    0.0000
   2989 H         182.5914  274.9034   88.2806 H       426      M_A    0.0000
   2990 C         181.5570  277.0679   88.9842 C.3     427      M_A    0.0000
   2991 C         181.3412  278.3433   89.7893 C.3     427      M_A    0.0000
   2992 O         181.7363  278.1045   91.1394 O.3     427      M_A    0.0000
   2993 H         181.3279  276.1902   89.5993 H       427      M_A    0.0000
   2994 H         180.8709  277.0635   88.1297 H       427      M_A    0.0000
   2995 H         180.2716  278.5933   89.7502 H       427      M_A    0.0000
   2996 H         181.9147  279.1818   89.3721 H       427      M_A    0.0000
   2997 C         182.9510  278.7631   91.4281 C.3     428      M_A    0.0000
   2998 C         182.8638  279.6389   92.6718 C.3     428      M_A    0.0000
   2999 O         183.9271  280.5897   92.6374 O.3     428      M_A    0.0000
   3000 H         183.2421  279.3671   90.5612 H       428      M_A    0.0000
   3001 H         183.7259  278.0030   91.5792 H       428      M_A    0.0000
   3002 H         182.9689  278.9902   93.5527 H       428      M_A    0.0000
   3003 H         181.8973  280.1573   92.7291 H       428      M_A    0.0000
   3004 C         183.7476  281.5758   93.6314 C.3     429      M_A    0.0000
   3005 C         184.0479  282.9814   93.1260 C.3     429      M_A    0.0000
   3006 O         185.3125  283.3931   93.6432 O.3     429      M_A    0.0000
   3007 H         184.3890  281.3377   94.4875 H       429      M_A    0.0000
   3008 H         182.7072  281.5329   93.9730 H       429      M_A    0.0000
   3009 H         183.2570  283.6508   93.4923 H       429      M_A    0.0000
   3010 H         184.0603  283.0179   92.0285 H       429      M_A    0.0000
   3011 C         185.6465  284.6830   93.1774 C.3     430      M_A    0.0000
   3012 C         185.8466  284.7294   91.6676 C.3     430      M_A    0.0000
   3013 O         186.2883  286.0367   91.3046 O.3     430      M_A    0.0000
   3014 H         186.5550  285.0208   93.6887 H       430      M_A    0.0000
   3015 H         184.8360  285.3675   93.4522 H       430      M_A    0.0000
   3016 H         184.8806  284.5137   91.1897 H       430      M_A    0.0000
   3017 H         186.5782  283.9798   91.3377 H       430      M_A    0.0000
   3018 C         185.8660  286.9890   92.2571 C.3     431      M_A    0.0000
   3019 C         186.4725  288.3664   92.0201 C.3     431      M_A    0.0000
   3020 O         186.4818  289.0809   93.2551 O.3     431      M_A    0.0000
   3021 H         186.1274  286.6291   93.2588 H       431      M_A    0.0000
   3022 H         184.7740  287.0649   92.2053 H       431      M_A    0.0000
   3023 H         185.8451  288.8927   91.2870 H       431      M_A    0.0000
   3024 H         187.4929  288.2911   91.6212 H       431      M_A    0.0000
   3025 C         187.5508  290.0021   93.2910 C.3     432      M_A    0.0000
   3026 C         187.0831  291.4378   93.4948 C.3     432      M_A    0.0000
   3027 O         188.0261  292.3173   92.8840 O.3     432      M_A    0.0000
   3028 H         188.1215  289.9201   92.3590 H       432      M_A    0.0000
   3029 H         188.2171  289.7224   94.1148 H       432      M_A    0.0000
   3030 H         187.0364  291.6301   94.5759 H       432      M_A    0.0000
   3031 H         186.0854  291.5984   93.0648 H       432      M_A    0.0000
   3032 C         187.3881  293.4860   92.4152 C.3     433      M_A    0.0000
   3033 C         188.2988  294.7070   92.4492 C.3     433      M_A    0.0000
   3034 O         187.6122  295.7719   93.1052 O.3     433      M_A    0.0000
   3035 H         186.4915  293.6674   93.0189 H       433      M_A    0.0000
   3036 H         187.0642  293.3095   91.3833 H       433      M_A    0.0000
   3037 H         188.5267  294.9903   91.4120 H       433      M_A    0.0000
   3038 H         189.2407  294.4892   92.9702 H       433      M_A    0.0000
   3039 C         188.2187  297.0124   92.8123 C.3     434      M_A    0.0000
   3040 C         189.3095  297.3835   93.8092 C.3     434      M_A    0.0000
   3041 O         189.5879  298.7773   93.6850 O.3     434      M_A    0.0000
   3042 H         187.4459  297.7893   92.7923 H       434      M_A    0.0000
   3043 H         188.6559  296.9521   91.8092 H       434      M_A    0.0000
   3044 H         190.2072  296.7985   93.5645 H       434      M_A    0.0000
   3045 H         189.0067  297.1505   94.8388 H       434      M_A    0.0000
   3046 C         189.2603  299.2388   92.3918 C.3     435      M_A    0.0000
   3047 C         190.0176  300.5045   92.0099 C.3     435      M_A    0.0000
   3048 O         189.2336  301.6369   92.3825 O.3     435      M_A    0.0000
   3049 H         188.1799  299.4160   92.3413 H       435      M_A    0.0000
   3050 H         189.5013  298.4468   91.6738 H       435      M_A    0.0000
   3051 H         190.1690  300.4948   90.9213 H       435      M_A    0.0000
   3052 H         190.9985  300.5476   92.5018 H       435      M_A    0.0000
   3053 C         190.0608  302.6996   92.8054 C.3     436      M_A    0.0000
   3054 C         189.2898  303.7871   93.5431 C.3     436      M_A    0.0000
   3055 O         190.1114  304.9502   93.6322 O.3     436      M_A    0.0000
   3056 H         190.5683  303.1238   91.9316 H       436      M_A    0.0000
   3057 H         190.8298  302.2916   93.4712 H       436      M_A    0.0000
   3058 H         189.0562  303.4147   94.5504 H       436      M_A    0.0000
   3059 H         188.3494  304.0291   93.0299 H       436      M_A    0.0000
   3060 C         189.3616  306.0579   94.0833 C.3     437      M_A    0.0000
   3061 C         189.8507  306.5924   95.4236 C.3     437      M_A    0.0000
   3062 O         188.8186  306.4122   96.3922 O.3     437      M_A    0.0000
   3063 H         188.3073  305.7672   94.1553 H       437      M_A    0.0000
   3064 H         189.4372  306.8521   93.3320 H       437      M_A    0.0000
   3065 H         190.0697  307.6627   95.3035 H       437      M_A    0.0000
   3066 H         190.7658  306.0797   95.7490 H       437      M_A    0.0000
   3067 C         187.6584  305.8771   95.7921 C.3     438      M_A    0.0000
   3068 C         187.6372  306.0675   94.2805 C.3     438      M_A    0.0000
   3069 O         186.4395  306.7554   93.9228 O.3     438      M_A    0.0000
   3070 H         186.7767  306.3460   96.2436 H       438      M_A    0.0000
   3071 H         187.6182  304.8056   96.0185 H       438      M_A    0.0000
   3072 H         187.6529  305.0733   93.8122 H       438      M_A    0.0000
   3073 H         188.5132  306.6333   93.9362 H       438      M_A    0.0000
   3074 C         185.4353  306.5472   94.8928 C.3     439      M_A    0.0000
   3075 C         185.4033  305.1134   95.4074 C.3     439      M_A    0.0000
   3076 O         184.4381  304.3789   94.6558 O.3     439      M_A    0.0000
   3077 H         184.4640  306.8147   94.4613 H       439      M_A    0.0000
   3078 H         185.6241  307.2249   95.7330 H       439      M_A    0.0000
   3079 H         185.1132  305.1389   96.4672 H       439      M_A    0.0000
   3080 H         186.3886  304.6359   95.3230 H       439      M_A    0.0000
   3081 C         184.8689  303.0500   94.4534 C.3     440      M_A    0.0000
   3082 C         186.0556  302.9551   93.5026 C.3     440      M_A    0.0000
   3083 O         185.5648  302.7814   92.1741 O.3     440      M_A    0.0000
   3084 H         184.0296  302.4595   94.0690 H       440      M_A    0.0000
   3085 H         185.1539  302.6301   95.4247 H       440      M_A    0.0000
   3086 H         186.6583  302.0844   93.7967 H       440      M_A    0.0000
   3087 H         186.6847  303.8537   93.5568 H       440      M_A    0.0000
   3088 C         184.2870  302.1817   92.1883 C.3     441      M_A    0.0000
   3089 C         184.1725  301.0663   93.2198 C.3     441      M_A    0.0000
   3090 O         184.4696  299.8235   92.5849 O.3     441      M_A    0.0000
   3091 H         184.0658  301.7939   91.1874 H       441      M_A    0.0000
   3092 H         183.5468  302.9570   92.4158 H       441      M_A    0.0000
   3093 H         183.1405  301.0570   93.5977 H       441      M_A    0.0000
   3094 H         184.8555  301.2302   94.0640 H       441      M_A    0.0000
   3095 C         183.9999  298.7416   93.3605 C.3     442      M_A    0.0000
   3096 C         184.9996  297.5942   93.4352 C.3     442      M_A    0.0000
   3097 O         184.3250  296.4299   93.9098 O.3     442      M_A    0.0000
   3098 H         183.0515  298.3887   92.9398 H       442      M_A    0.0000
   3099 H         183.7988  299.1077   94.3736 H       442      M_A    0.0000
   3100 H         185.7940  297.8804   94.1387 H       442      M_A    0.0000
   3101 H         185.4523  297.3934   92.4549 H       442      M_A    0.0000
   3102 C         183.8586  295.6482   92.8309 C.3     443      M_A    0.0000
   3103 C         183.0165  294.4624   93.2849 C.3     443      M_A    0.0000
   3104 O         183.0754  293.4489   92.2823 O.3     443      M_A    0.0000
   3105 H         184.7184  295.2990   92.2478 H       443      M_A    0.0000
   3106 H         183.2531  296.2888   92.1798 H       443      M_A    0.0000
   3107 H         181.9807  294.8082   93.4083 H       443      M_A    0.0000
   3108 H         183.3716  294.0634   94.2445 H       443      M_A    0.0000
   3109 C         182.7692  292.1850   92.8314 C.3     444      M_A    0.0000
   3110 C         183.7347  291.0973   92.3772 C.3     444      M_A    0.0000
   3111 O         183.0988  289.8289   92.5280 O.3     444      M_A    0.0000
   3112 H         181.7429  291.9174   92.5556 H       444      M_A    0.0000
   3113 H         182.8098  292.2664   93.9235 H       444      M_A    0.0000
   3114 H         184.6280  291.1472   93.0155 H       444      M_A    0.0000
   3115 H         184.0394  291.2435   91.3323 H       444      M_A    0.0000
   3116 C         184.0000  288.8777   93.0529 C.3     445      M_A    0.0000
   3117 C         183.3406  287.5317   93.3268 C.3     445      M_A    0.0000
   3118 O         182.5268  287.6497   94.4929 O.3     445      M_A    0.0000
   3119 H         184.4403  289.2763   93.9740 H       445      M_A    0.0000
   3120 H         184.8113  288.7382   92.3296 H       445      M_A    0.0000
   3121 H         184.1354  286.7920   93.4974 H       445      M_A    0.0000
   3122 H         182.7310  287.2039   92.4742 H       445      M_A    0.0000
   3123 C         181.3413  286.8964   94.3529 C.3     446      M_A    0.0000
   3124 C         180.9756  286.1347   95.6207 C.3     446      M_A    0.0000
   3125 O         180.4028  284.8809   95.2522 O.3     446      M_A    0.0000
   3126 H         181.4604  286.1996   93.5154 H       446      M_A    0.0000
   3127 H         180.5260  287.5837   94.1005 H       446      M_A    0.0000
   3128 H         180.2411  286.7335   96.1774 H       446      M_A    0.0000
   3129 H         181.8551  285.9736   96.2585 H       446      M_A    0.0000
   3130 C         180.2776  284.0388   96.3781 C.3     447      M_A    0.0000
   3131 C         180.5878  282.5815   96.0597 C.3     447      M_A    0.0000
   3132 O         179.3583  281.8665   95.9452 O.3     447      M_A    0.0000
   3133 H         179.2613  284.1294   96.7778 H       447      M_A    0.0000
   3134 H         180.9713  284.3921   97.1495 H       447      M_A    0.0000
   3135 H         181.1842  282.1720   96.8871 H       447      M_A    0.0000
   3136 H         181.1648  282.4891   95.1298 H       447      M_A    0.0000
   3137 C         179.2578  281.2452   94.6817 C.3     448      M_A    0.0000
   3138 C         178.3982  279.9876   94.7117 C.3     448      M_A    0.0000
   3139 O         179.2105  278.8696   94.3568 O.3     448      M_A    0.0000
   3140 H         180.2651  281.0049   94.3231 H       448      M_A    0.0000
   3141 H         178.8174  281.9631   93.9805 H       448      M_A    0.0000
   3142 H         177.5889  280.1111   93.9784 H       448      M_A    0.0000
   3143 H         177.9539  279.8301   95.7037 H       448      M_A    0.0000
   3144 C         178.4685  277.9310   93.6076 C.3     449      M_A    0.0000
   3145 C         177.5719  277.0601   94.4788 C.3     449      M_A    0.0000
   3146 O         177.4845  275.7625   93.8918 O.3     449      M_A    0.0000
   3147 H         179.1628  277.3045   93.0362 H       449      M_A    0.0000
   3148 H         177.8473  278.4790   92.8901 H       449      M_A    0.0000
   3149 H         176.5763  277.5242   94.5130 H       449      M_A    0.0000
   3150 H         177.9609  276.9843   95.5030 H       449      M_A    0.0000
   3151 C         176.6247  274.9319   94.6424 C.3     450      M_A    0.0000
   3152 C         176.8686  273.4497   94.3871 C.3     450      M_A    0.0000
   3153 O         175.6085  272.7836   94.3195 O.3     450      M_A    0.0000
   3154 H         175.5861  275.1895   94.4053 H       450      M_A    0.0000
   3155 H         176.7855  275.1432   95.7056 H       450      M_A    0.0000
   3156 H         177.4582  273.0527   95.2253 H       450      M_A    0.0000
   3157 H         177.4285  273.2910   93.4558 H       450      M_A    0.0000
   3158 C         175.7505  271.4139   94.6294 C.3     451      M_A    0.0000
   3159 C         175.1760  270.5043   93.5505 C.3     451      M_A    0.0000
   3160 O         174.8234  269.2559   94.1446 O.3     451      M_A    0.0000
   3161 H         175.2619  271.2148   95.5900 H       451      M_A    0.0000
   3162 H         176.8183  271.1980   94.7483 H       451      M_A    0.0000
   3163 H         175.9513  270.3507   92.7868 H       451      M_A    0.0000
   3164 H         174.2959  270.9559   93.0734 H       451      M_A    0.0000
   3165 C         174.8087  268.2287   93.1764 C.3     452      M_A    0.0000
   3166 C         173.6826  267.2269   93.3992 C.3     452      M_A    0.0000
   3167 O         174.2529  265.9344   93.5996 O.3     452      M_A    0.0000
   3168 H         175.7773  267.7160   93.1882 H       452      M_A    0.0000
   3169 H         174.6880  268.6893   92.1894 H       452      M_A    0.0000
   3170 H         173.0489  267.2222   92.5013 H       452      M_A    0.0000
   3171 H         173.0657  267.5042   94.2645 H       452      M_A    0.0000
   3172 C         173.2929  265.0404   94.1210 C.3     453      M_A    0.0000
   3173 C         173.6190  263.5838   93.8154 C.3     453      M_A    0.0000
   3174 O         172.4351  262.8051   93.9823 O.3     453      M_A    0.0000
   3175 H         172.3087  265.2997   93.7146 H       453      M_A    0.0000
   3176 H         173.2509  265.1775   95.2075 H       453      M_A    0.0000
   3177 H         174.3896  263.2516   94.5252 H       453      M_A    0.0000
   3178 H         174.0060  263.4661   92.7944 H       453      M_A    0.0000
   3179 C         172.0568  262.7565   95.3414 C.3     454      M_A    0.0000
   3180 C         171.9270  261.3315   95.8648 C.3     454      M_A    0.0000
   3181 O         170.6089  260.8606   95.5881 O.3     454      M_A    0.0000
   3182 H         171.1084  263.2915   95.4652 H       454      M_A    0.0000
   3183 H         172.8163  263.2856   95.9280 H       454      M_A    0.0000
   3184 H         172.0982  261.3510   96.9503 H       454      M_A    0.0000
   3185 H         172.6689  260.6664   95.4029 H       454      M_A    0.0000
   3186 C         170.5998  260.0533   94.4303 C.3     455      M_A    0.0000
   3187 C         169.9811  258.6824   94.6742 C.3     455      M_A    0.0000
   3188 O         170.5631  257.7494   93.7651 O.3     455      M_A    0.0000
   3189 H         171.6276  259.9436   94.0659 H       455      M_A    0.0000
   3190 H         170.0254  260.5724   93.6546 H       455      M_A    0.0000
   3191 H         168.9001  258.7598   94.4915 H       455      M_A    0.0000
   3192 H         170.1409  258.3497   95.7085 H       455      M_A    0.0000
   3193 C         169.6183  256.7753   93.3762 C.3     456      M_A    0.0000
   3194 C         168.7869  256.2629   94.5456 C.3     456      M_A    0.0000
   3195 O         168.6620  254.8461   94.4322 O.3     456      M_A    0.0000
   3196 H         170.1442  255.9433   92.8943 H       456      M_A    0.0000
   3197 H         168.9508  257.2231   92.6314 H       456      M_A    0.0000
   3198 H         167.7948  256.7326   94.4892 H       456      M_A    0.0000
   3199 H         169.2464  256.5243   95.5082 H       456      M_A    0.0000
   3200 C         167.8144  254.5040   93.3566 C.3     457      M_A    0.0000
   3201 C         167.1407  253.1507   93.5463 C.3     457      M_A    0.0000
   3202 O         167.8548  252.1741   92.7899 O.3     457      M_A    0.0000
   3203 H         168.3985  254.5078   92.4293 H       457      M_A    0.0000
   3204 H         167.0438  255.2781   93.2675 H       457      M_A    0.0000
   3205 H         166.1085  253.2298   93.1773 H       457      M_A    0.0000
   3206 H         167.1152  252.8614   94.6055 H       457      M_A    0.0000
   3207 C         167.5853  250.8747   93.2712 C.3     458      M_A    0.0000
   3208 C         166.8194  250.0228   92.2667 C.3     458      M_A    0.0000
   3209 O         166.4343  248.8036   92.9001 O.3     458      M_A    0.0000
   3210 H         167.0207  250.9529   94.2073 H       458      M_A    0.0000
   3211 H         168.5406  250.3881   93.4985 H       458      M_A    0.0000
   3212 H         167.4882  249.8109   91.4206 H       458      M_A    0.0000
   3213 H         165.9314  250.5485   91.8910 H       458      M_A    0.0000
   3214 C         166.2693  247.7759   91.9466 C.3     459      M_A    0.0000
   3215 C         165.4026  246.6324   92.4589 C.3     459      M_A    0.0000
   3216 O         166.2305  245.4897   92.6700 O.3     459      M_A    0.0000
   3217 H         167.2568  247.3996   91.6559 H       459      M_A    0.0000
   3218 H         165.8018  248.2076   91.0544 H       459      M_A    0.0000
   3219 H         164.6452  246.4106   91.6939 H       459      M_A    0.0000
   3220 H         164.8918  246.9045   93.3922 H       459      M_A    0.0000
   3221 C         165.5178  244.4740   93.3430 C.3     460      M_A    0.0000
   3222 C         165.8862  243.0773   92.8585 C.3     460      M_A    0.0000
   3223 O         164.9163  242.1525   93.3481 O.3     460      M_A    0.0000
   3224 H         164.4437  244.6476   93.2118 H       460      M_A    0.0000
   3225 H         165.7390  244.5515   94.4135 H       460      M_A    0.0000
   3226 H         166.8783  242.8285   93.2608 H       460      M_A    0.0000
   3227 H         165.9290  243.0325   91.7620 H       460      M_A    0.0000
   3228 C         165.0430  241.9883   94.7444 C.3     461      M_A    0.0000
   3229 C         164.7783  240.5569   95.1944 C.3     461      M_A    0.0000
   3230 O         163.3783  240.3999   95.4207 O.3     461      M_A    0.0000
   3231 H         164.3526  242.6753   95.2467 H       461      M_A    0.0000
   3232 H         166.0620  242.2712   95.0319 H       461      M_A    0.0000
   3233 H         165.3308  240.3865   96.1291 H       461      M_A    0.0000
   3234 H         165.1218  239.8317   94.4446 H       461      M_A    0.0000
   3235 C         163.1346  239.3522   96.3348 C.3     462      M_A    0.0000
   3236 C         163.3602  237.9748   95.7239 C.3     462      M_A    0.0000
   3237 O         162.0914  237.3742   95.4684 O.3     462      M_A    0.0000
   3238 H         162.1067  239.4366   96.7055 H       462      M_A    0.0000
   3239 H         163.8082  239.4793   97.1898 H       462      M_A    0.0000
   3240 H         163.9226  237.3693   96.4485 H       462      M_A    0.0000
   3241 H         163.9400  238.0397   94.7935 H       462      M_A    0.0000
   3242 C         162.2208  235.9761   95.3230 C.3     463      M_A    0.0000
   3243 C         161.8799  235.4971   93.9174 C.3     463      M_A    0.0000
   3244 O         161.3456  234.1767   94.0010 O.3     463      M_A    0.0000
   3245 H         161.5745  235.4816   96.0571 H       463      M_A    0.0000
   3246 H         163.2565  235.7018   95.5533 H       463      M_A    0.0000
   3247 H         162.8064  235.4901   93.3263 H       463      M_A    0.0000
   3248 H         161.1567  236.1655   93.4313 H       463      M_A    0.0000
   3249 C         161.6582  233.4371   92.8400 C.3     464      M_A    0.0000
   3250 C         160.6367  232.3456   92.5456 C.3     464      M_A    0.0000
   3251 O         161.1002  231.1205   93.1115 O.3     464      M_A    0.0000
   3252 H         162.6557  232.9985   92.9565 H       464      M_A    0.0000
   3253 H         161.6962  234.1300   91.9918 H       464      M_A    0.0000
   3254 H         160.5506  232.2458   91.4544 H       464      M_A    0.0000
   3255 H         159.6500  232.5998   92.9553 H       464      M_A    0.0000
   3256 C         160.0636  230.1630   93.1466 C.3     465      M_A    0.0000
   3257 C         160.0232  229.3881   94.4579 C.3     465      M_A    0.0000
   3258 O         159.2873  228.1827   94.2545 O.3     465      M_A    0.0000
   3259 H         160.1891  229.4730   92.3045 H       465      M_A    0.0000
   3260 H         159.1097  230.6849   93.0097 H       465      M_A    0.0000
   3261 H         159.5184  230.0138   95.2073 H       465      M_A    0.0000
   3262 H         161.0348  229.1554   94.8165 H       465      M_A    0.0000
   3263 C         159.3628  227.7731   92.9057 C.3     466      M_A    0.0000
   3264 C         158.2521  226.8029   92.5229 C.3     466      M_A    0.0000
   3265 O         158.7268  225.4696   92.7037 O.3     466      M_A    0.0000
   3266 H         160.3421  227.3142   92.7284 H       466      M_A    0.0000
   3267 H         159.2935  228.6646   92.2722 H       466      M_A    0.0000
   3268 H         158.0020  226.9720   91.4661 H       466      M_A    0.0000
   3269 H         157.3510  226.9669   93.1290 H       466      M_A    0.0000
   3270 C         157.9851  224.5641   91.9147 C.3     467      M_A    0.0000
   3271 C         156.8395  223.9167   92.6827 C.3     467      M_A    0.0000
   3272 O         157.1385  222.5344   92.8711 O.3     467      M_A    0.0000
   3273 H         158.6618  223.7942   91.5271 H       467      M_A    0.0000
   3274 H         157.5772  225.1109   91.0570 H       467      M_A    0.0000
   3275 H         155.9245  224.0243   92.0834 H       467      M_A    0.0000
   3276 H         156.6836  224.4038   93.6546 H       467      M_A    0.0000
   3277 C         156.4295  222.0162   93.9763 C.3     468      M_A    0.0000
   3278 C         156.4992  220.4965   94.0594 C.3     468      M_A    0.0000
   3279 O         155.1724  219.9742   94.0089 O.3     468      M_A    0.0000
   3280 H         155.3853  222.3430   93.9130 H       468      M_A    0.0000
   3281 H         156.8574  222.4447   94.8897 H       468      M_A    0.0000
   3282 H         156.9714  220.2294   95.0153 H       468      M_A    0.0000
   3283 H         157.0996  220.0781   93.2405 H       468      M_A    0.0000
   3284 C         155.1712  218.5875   94.2732 C.3     469      M_A    0.0000
   3285 C         154.8389  217.7546   93.0415 C.3     469      M_A    0.0000
   3286 O         154.4238  216.4568   93.4650 O.3     469      M_A    0.0000
   3287 H         154.4527  218.3795   95.0742 H       469      M_A    0.0000
   3288 H         156.1659  218.3069   94.6375 H       469      M_A    0.0000
   3289 H         155.7479  217.6762   92.4286 H       469      M_A    0.0000
   3290 H         154.0486  218.2252   92.4414 H       469      M_A    0.0000
   3291 C         153.0348  216.4338   93.7155 C.3     470      M_A    0.0000
   3292 C         152.5898  215.1725   94.4452 C.3     470      M_A    0.0000
   3293 O         152.1972  214.1991   93.4787 O.3     470      M_A    0.0000
   3294 H         152.5008  216.5266   92.7630 H       470      M_A    0.0000
   3295 H         152.7817  217.3084   94.3254 H       470      M_A    0.0000
   3296 H         151.7343  215.4331   95.0841 H       470      M_A    0.0000
   3297 H         153.3931  214.7718   95.0779 H       470      M_A    0.0000
   3298 C         151.4689  213.1552   94.0888 C.3     471      M_A    0.0000
   3299 C         152.3168  211.9139   94.3374 C.3     471      M_A    0.0000
   3300 O         151.6315  210.7786   93.8109 O.3     471      M_A    0.0000
   3301 H         150.6100  212.9045   93.4558 H       471      M_A    0.0000
   3302 H         151.0811  213.5213   95.0461 H       471      M_A    0.0000
   3303 H         152.4475  211.8031   95.4230 H       471      M_A    0.0000
   3304 H         153.3068  212.0056   93.8707 H       471      M_A    0.0000
   3305 C         152.0171  209.6031   94.4906 C.3     472      M_A    0.0000
   3306 C         151.8621  208.3517   93.6354 C.3     472      M_A    0.0000
   3307 O         151.0465  207.4154   94.3380 O.3     472      M_A    0.0000
   3308 H         151.4212  209.5105   95.4058 H       472      M_A    0.0000
   3309 H         153.0672  209.7067   94.7865 H       472      M_A    0.0000
   3310 H         152.8622  207.9274   93.4691 H       472      M_A    0.0000
   3311 H         151.4122  208.5860   92.6613 H       472      M_A    0.0000
   3312 C         151.3643  206.0932   93.9590 C.3     473      M_A    0.0000
   3313 C         150.1654  205.3379   93.3990 C.3     473      M_A    0.0000
   3314 O         150.2009  203.9974   93.8863 O.3     473      M_A    0.0000
   3315 H         151.7718  205.5632   94.8274 H       473      M_A    0.0000
   3316 H         152.1497  206.1346   93.1958 H       473      M_A    0.0000
   3317 H         150.2435  205.3408   92.3027 H       473      M_A    0.0000
   3318 H         149.2203  205.8179   93.6863 H       473      M_A    0.0000
   3319 C         149.0134  203.3122   93.5499 C.3     474      M_A    0.0000
   3320 C         148.9480  201.9163   94.1571 C.3     474      M_A    0.0000
   3321 O         148.3113  201.0420   93.2265 O.3     474      M_A    0.0000
   3322 H         148.9350  203.2527   92.4584 H       474      M_A    0.0000
   3323 H         148.1633  203.9007   93.9130 H       474      M_A    0.0000
   3324 H         148.3568  201.9749   95.0817 H       474      M_A    0.0000
   3325 H         149.9499  201.5394   94.4025 H       474      M_A    0.0000
   3326 C         148.2473  199.7283   93.7389 C.3     475      M_A    0.0000
   3327 C         147.6073  198.7475   92.7642 C.3     475      M_A    0.0000
   3328 O         147.2186  197.5772   93.4818 O.3     475      M_A    0.0000
   3329 H         147.6885  199.7418   94.6816 H       475      M_A    0.0000
   3330 H         149.2678  199.3969   93.9618 H       475      M_A    0.0000
   3331 H         148.3554  198.4888   92.0017 H       475      M_A    0.0000
   3332 H         146.7347  199.1906   92.2659 H       475      M_A    0.0000
   3333 C         148.3518  196.8328   93.8746 C.3     476      M_A    0.0000
   3334 C         148.2532  195.3629   93.4859 C.3     476      M_A    0.0000
   3335 O         147.5888  194.6564   94.5324 O.3     476      M_A    0.0000
   3336 H         148.4810  196.9283   94.9587 H       476      M_A    0.0000
   3337 H         149.2337  197.2717   93.3945 H       476      M_A    0.0000
   3338 H         149.2739  194.9750   93.3607 H       476      M_A    0.0000
   3339 H         147.7089  195.2345   92.5407 H       476      M_A    0.0000
   3340 C         146.9581  193.4975   94.0305 C.3     477      M_A    0.0000
   3341 C         145.7466  193.8163   93.1634 C.3     477      M_A    0.0000
   3342 O         144.7613  194.4578   93.9717 O.3     477      M_A    0.0000
   3343 H         146.6623  192.8615   94.8726 H       477      M_A    0.0000
   3344 H         147.6891  192.9405   93.4336 H       477      M_A    0.0000
   3345 H         145.3508  192.8691   92.7706 H       477      M_A    0.0000
   3346 H         146.0185  194.4623   92.3179 H       477      M_A    0.0000
   3347 C         145.2119  194.5822   95.3037 C.3     478      M_A    0.0000
   3348 C         145.9039  193.3229   95.8102 C.3     478      M_A    0.0000
   3349 O         144.9166  192.4407   96.3421 O.3     478      M_A    0.0000
   3350 H         144.3583  194.8276   95.9457 H       478      M_A    0.0000
   3351 H         145.9156  195.4209   95.3508 H       478      M_A    0.0000
   3352 H         146.6091  193.6167   96.6004 H       478      M_A    0.0000
   3353 H         146.4622  192.8227   95.0076 H       478      M_A    0.0000
   3354 C         144.2113  191.7959   95.3031 C.3     479      M_A    0.0000
   3355 C         144.3622  190.2803   95.3426 C.3     479      M_A    0.0000
   3356 O         144.2435  189.7739   94.0139 O.3     479      M_A    0.0000
   3357 H         144.5630  192.1849   94.3407 H       479      M_A    0.0000
   3358 H         143.1502  192.0527   95.3980 H       479      M_A    0.0000
   3359 H         143.5575  189.8747   95.9718 H       479      M_A    0.0000
   3360 H         145.3287  189.9854   95.7727 H       479      M_A    0.0000
   3361 C         143.9999  188.3836   94.0293 C.3     480      M_A    0.0000
   3362 C         143.2100  187.9116   92.8149 C.3     480      M_A    0.0000
   3363 O         142.7606  186.5782   93.0513 O.3     480      M_A    0.0000
   3364 H         143.4642  188.1272   94.9504 H       480      M_A    0.0000
   3365 H         144.9658  187.8663   94.0512 H       480      M_A    0.0000
   3366 H         143.8802  187.9327   91.9441 H       480      M_A    0.0000
   3367 H         142.3524  188.5679   92.6156 H       480      M_A    0.0000
   3368 C         142.3247  185.9778   91.8505 C.3     481      M_A    0.0000
   3369 C         141.4109  184.7822   92.0889 C.3     481      M_A    0.0000
   3370 O         142.1956  183.5912   92.0482 O.3     481      M_A    0.0000
   3371 H         143.2012  185.6723   91.2678 H       481      M_A    0.0000
   3372 H         141.7835  186.7313   91.2670 H       481      M_A    0.0000
   3373 H         140.6591  184.7635   91.2874 H       481      M_A    0.0000
   3374 H         140.8944  184.8597   93.0549 H       481      M_A    0.0000
   3375 C         141.7130  182.6432   92.9760 C.3     482      M_A    0.0000
   3376 C         141.6862  181.2285   92.4110 C.3     482      M_A    0.0000
   3377 O         140.8175  180.4313   93.2145 O.3     482      M_A    0.0000
   3378 H         140.7079  182.9403   93.2967 H       482      M_A    0.0000
   3379 H         142.3633  182.6643   93.8578 H       482      M_A    0.0000
   3380 H         142.7084  180.8267   92.4516 H       482      M_A    0.0000
   3381 H         141.3456  181.2209   91.3670 H       482      M_A    0.0000
   3382 C         140.8574  179.0811   92.8047 C.3     483      M_A    0.0000
   3383 C         139.5829  178.3228   93.1539 C.3     483      M_A    0.0000
   3384 O         139.9034  176.9428   93.3235 O.3     483      M_A    0.0000
   3385 H         141.7240  178.5952   93.2672 H       483      M_A    0.0000
   3386 H         141.0024  179.0564   91.7187 H       483      M_A    0.0000
   3387 H         138.8759  178.4440   92.3211 H       483      M_A    0.0000
   3388 H         139.1207  178.7169   94.0688 H       483      M_A    0.0000
   3389 C         138.7888  176.1306   93.0224 C.3     484      M_A    0.0000
   3390 C         138.7060  174.8940   93.9087 C.3     484      M_A    0.0000
   3391 O         138.1116  173.8341   93.1609 O.3     484      M_A    0.0000
   3392 H         138.8386  175.8361   91.9680 H       484      M_A    0.0000
   3393 H         137.8813  176.7296   93.1581 H       484      M_A    0.0000
   3394 H         138.0778  175.1389   94.7766 H       484      M_A    0.0000
   3395 H         139.6991  174.5910   94.2666 H       484      M_A    0.0000
   3396 C         138.4020  172.5841   93.7490 C.3     485      M_A    0.0000
   3397 C         137.6927  171.4285   93.0540 C.3     485      M_A    0.0000
   3398 O         137.2292  170.5133   94.0457 O.3     485      M_A    0.0000
   3399 H         138.1217  172.6164   94.8080 H       485      M_A    0.0000
   3400 H         139.4847  172.4234   93.6961 H       485      M_A    0.0000
   3401 H         138.4180  170.9315   92.3946 H       485      M_A    0.0000
   3402 H         136.8496  171.7838   92.4465 H       485      M_A    0.0000
   3403 C         136.0679  169.8437   93.6034 C.3     486      M_A    0.0000
   3404 C         136.0542  168.3708   93.9929 C.3     486      M_A    0.0000
   3405 O         135.3585  167.6376   92.9858 O.3     486      M_A    0.0000
   3406 H         135.9915  169.9467   92.5150 H       486      M_A    0.0000
   3407 H         135.1966  170.3392   94.0465 H       486      M_A    0.0000
   3408 H         135.5296  168.2780   94.9542 H       486      M_A    0.0000
   3409 H         137.0733  167.9779   94.1081 H       486      M_A    0.0000
   3410 C         135.0236  166.3470   93.4492 C.3     487      M_A    0.0000
   3411 C         135.4576  165.2466   92.4889 C.3     487      M_A    0.0000
   3412 O         134.7929  164.0365   92.8491 O.3     487      M_A    0.0000
   3413 H         133.9411  166.2987   93.6136 H       487      M_A    0.0000
   3414 H         135.5144  166.1919   94.4166 H       487      M_A    0.0000
   3415 H         136.5451  165.1203   92.5854 H       487      M_A    0.0000
   3416 H         135.2241  165.5087   91.4482 H       487      M_A    0.0000
   3417 C         134.0279  164.2170   94.0216 C.3     488      M_A    0.0000
   3418 C         133.7742  162.9113   94.7648 C.3     488      M_A    0.0000
   3419 O         132.5717  162.3272   94.2661 O.3     488      M_A    0.0000
   3420 H         133.0760  164.6902   93.7550 H       488      M_A    0.0000
   3421 H         134.5683  164.9052   94.6813 H       488      M_A    0.0000
   3422 H         133.6631  163.1441   95.8332 H       488      M_A    0.0000
   3423 H         134.6116  162.2116   94.6416 H       488      M_A    0.0000
   3424 C         132.7938  161.7220   93.0104 C.3     489      M_A    0.0000
   3425 C         132.2518  160.2999   92.9390 C.3     489      M_A    0.0000
   3426 O         133.3442  159.4032   92.7428 O.3     489      M_A    0.0000
   3427 H         133.8693  161.7268   92.7993 H       489      M_A    0.0000
   3428 H         132.3017  162.3315   92.2440 H       489      M_A    0.0000
   3429 H         131.5609  160.2415   92.0863 H       489      M_A    0.0000
   3430 H         131.7059  160.0333   93.8539 H       489      M_A    0.0000
   3431 C         132.9635  158.3262   91.9135 C.3     490      M_A    0.0000
   3432 C         131.7294  157.5957   92.4280 C.3     490      M_A    0.0000
   3433 O         132.0755  156.2348   92.6808 O.3     490      M_A    0.0000
   3434 H         133.8054  157.6298   91.8273 H       490      M_A    0.0000
   3435 H         132.7546  158.7211   90.9128 H       490      M_A    0.0000
   3436 H         130.9546  157.6474   91.6501 H       490      M_A    0.0000
   3437 H         131.3414  158.0616   93.3436 H       490      M_A    0.0000
   3438 C         132.2881  155.5404   91.4703 C.3     491      M_A    0.0000
   3439 C         131.2222  154.4850   91.2030 C.3     491      M_A    0.0000
   3440 O         131.6185  153.2657   91.8290 O.3     491      M_A    0.0000
   3441 H         133.2803  155.0759   91.4971 H       491      M_A    0.0000
   3442 H         132.2837  156.2689   90.6516 H       491      M_A    0.0000
   3443 H         131.1501  154.3422   90.1156 H       491      M_A    0.0000
   3444 H         130.2415  154.8015   91.5827 H       491      M_A    0.0000
   3445 C         130.5267  152.6687   92.4955 C.3     492      M_A    0.0000
   3446 C         130.8629  151.2942   93.0604 C.3     492      M_A    0.0000
   3447 O         129.6638  150.5247   93.1361 O.3     492      M_A    0.0000
   3448 H         129.6835  152.5943   91.7994 H       492      M_A    0.0000
   3449 H         130.2234  153.3286   93.3162 H       492      M_A    0.0000
   3450 H         131.2834  151.4335   94.0663 H       492      M_A    0.0000
   3451 H         131.6039  150.7758   92.4373 H       492      M_A    0.0000
   3452 C         129.6790  149.6868   94.2720 C.3     493      M_A    0.0000
   3453 C         129.5164  148.2138   93.9181 C.3     493      M_A    0.0000
   3454 O         128.1920  147.8052   94.2572 O.3     493      M_A    0.0000
   3455 H         128.8817  150.0007   94.9553 H       493      M_A    0.0000
   3456 H         130.6349  149.8273   94.7891 H       493      M_A    0.0000
   3457 H         130.2477  147.6403   94.5049 H       493      M_A    0.0000
   3458 H         129.7034  148.0357   92.8507 H       493      M_A    0.0000
   3459 C         128.0914  146.3973   94.2691 C.3     494      M_A    0.0000
   3460 C         127.5930  145.8322   92.9447 C.3     494      M_A    0.0000
   3461 O         127.0592  144.5293   93.1752 O.3     494      M_A    0.0000
   3462 H         127.4224  146.0961   95.0832 H       494      M_A    0.0000
   3463 H         129.0836  145.9843   94.4837 H       494      M_A    0.0000
   3464 H         128.4486  145.7709   92.2576 H       494      M_A    0.0000
   3465 H         126.8268  146.4790   92.4968 H       494      M_A    0.0000
   3466 C         127.6692  143.9312   94.2989 C.3     495      M_A    0.0000
   3467 C         127.7436  142.4134   94.1893 C.3     495      M_A    0.0000
   3468 O         126.5423  141.8568   94.7210 O.3     495      M_A    0.0000
   3469 H         127.1132  144.2175   95.1989 H       495      M_A    0.0000
   3470 H         128.6842  144.3335   94.3929 H       495      M_A    0.0000
   3471 H         128.6074  142.0718   94.7768 H       495      M_A    0.0000
   3472 H         127.8775  142.0936   93.1472 H       495      M_A    0.0000
   3473 C         126.6946  140.4734   94.9570 C.3     496      M_A    0.0000
   3474 C         126.3493  139.6275   93.7377 C.3     496      M_A    0.0000
   3475 O         125.2841  138.7426   94.0815 O.3     496      M_A    0.0000
   3476 H         126.0635  140.1866   95.8059 H       496      M_A    0.0000
   3477 H         127.7369  140.2863   95.2390 H       496      M_A    0.0000
   3478 H         127.2423  139.0497   93.4607 H       496      M_A    0.0000
   3479 H         126.0569  140.2549   92.8852 H       496      M_A    0.0000
   3480 C         125.3005  137.5972   93.2568 C.3     497      M_A    0.0000
   3481 C         123.9320  136.9377   93.1393 C.3     497      M_A    0.0000
   3482 O         124.1017  135.5215   93.1783 O.3     497      M_A    0.0000
   3483 H         126.0302  136.8832   93.6553 H       497      M_A    0.0000
   3484 H         125.6398  137.8977   92.2590 H       497      M_A    0.0000
   3485 H         123.4920  137.2364   92.1775 H       497      M_A    0.0000
   3486 H         123.2623  137.2588   93.9483 H       497      M_A    0.0000
   3487 C         122.8961  134.8649   92.8497 C.3     498      M_A    0.0000
   3488 C         122.7400  133.5292   93.5660 C.3     498      M_A    0.0000
   3489 O         122.2331  132.5697   92.6397 O.3     498      M_A    0.0000
   3490 H         122.8565  134.7176   91.7644 H       498      M_A    0.0000
   3491 H         122.0623  135.5195   93.1273 H       498      M_A    0.0000
   3492 H         122.0271  133.6670   94.3911 H       498      M_A    0.0000
   3493 H         123.6964  133.1833   93.9806 H       498      M_A    0.0000
   3494 C         122.7027  131.2760   92.9536 C.3     499      M_A    0.0000
   3495 C         121.7118  130.1827   92.5738 C.3     499      M_A    0.0000
   3496 O         121.7942  129.1351   93.5390 O.3     499      M_A    0.0000
   3497 H         122.9234  131.2290   94.0260 H       499      M_A    0.0000
   3498 H         123.6418  131.1115   92.4132 H       499      M_A    0.0000
   3499 H         121.9903  129.8011   91.5814 H       499      M_A    0.0000
   3500 H         120.6857  130.5713   92.5269 H       499      M_A    0.0000
   3501 C         120.6565  128.3022   93.4703 C.3     500      M_A    0.0000
   3502 C         121.0028  126.8232   93.5880 C.3     500      M_A    0.0000
   3503 O         119.9145  126.0562   93.0750 O.3     500      M_A    0.0000
   3504 H         120.1334  128.4931   92.5263 H       500      M_A    0.0000
   3505 H         119.9799  128.5776   94.2872 H       500      M_A    0.0000
   3506 H         121.1551  126.5931   94.6519 H       500      M_A    0.0000
   3507 H         121.9237  126.5830   93.0400 H       500      M_A    0.0000
   3508 C         119.7552  124.8616   93.8100 C.3     501      M_A    0.0000
   3509 C         119.5730  123.6413   92.9161 C.3     501      M_A    0.0000
   3510 O         118.6692  122.7389   93.5524 O.3     501      M_A    0.0000
   3511 H         118.8952  124.9695   94.4807 H       501      M_A    0.0000
   3512 H         120.6464  124.7200   94.4318 H       501      M_A    0.0000
   3513 H         120.5542  123.1625   92.7898 H       501      M_A    0.0000
   3514 H         119.1886  123.9236   91.9269 H       501      M_A    0.0000
   3515 C         118.7953  121.4413   93.0111 C.3     502      M_A    0.0000
   3516 C         117.4711  120.6886   92.9738 C.3     502      M_A    0.0000
   3517 O         117.7367  119.2903   93.0730 O.3     502      M_A    0.0000
   3518 H         119.5310  120.8812   93.5994 H       502      M_A    0.0000
   3519 H         119.1845  121.5317   91.9907 H       502      M_A    0.0000
   3520 H         116.9807  120.9103   92.0155 H       502      M_A    0.0000
   3521 H         116.8081  121.0045   93.7904 H       502      M_A    0.0000
   3522 C         118.2555  118.9695   94.3460 C.3     503      M_A    0.0000
   3523 C         118.3310  117.4672   94.5886 C.3     503      M_A    0.0000
   3524 O         117.0758  117.0229   95.1012 O.3     503      M_A    0.0000
   3525 H         117.6331  119.4445   95.1129 H       503      M_A    0.0000
   3526 H         119.2621  119.3957   94.4236 H       503      M_A    0.0000
   3527 H         119.1243  117.2813   95.3262 H       503      M_A    0.0000
   3528 H         118.5738  116.9245   93.6653 H       503      M_A    0.0000
   3529 C         116.3010  116.4308   94.0805 C.3     504      M_A    0.0000
   3530 C         116.0358  114.9509   94.3271 C.3     504      M_A    0.0000
   3531 O         115.6308  114.3477   93.0991 O.3     504      M_A    0.0000
   3532 H         116.8134  116.5673   93.1214 H       504      M_A    0.0000
   3533 H         115.3438  116.9615   94.0248 H       504      M_A    0.0000
   3534 H         115.2292  114.8689   95.0692 H       504      M_A    0.0000
   3535 H         116.9280  114.4443   94.7188 H       504      M_A    0.0000
   3536 C         114.8673  113.1853   93.3416 C.3     505      M_A    0.0000
   3537 C         115.5621  111.9157   92.8655 C.3     505      M_A    0.0000
   3538 O         114.6128  110.8506   92.8563 O.3     505      M_A    0.0000
   3539 H         113.8944  113.2904   92.8482 H       505      M_A    0.0000
   3540 H         114.6873  113.1120   94.4201 H       505      M_A    0.0000
   3541 H         116.3746  111.6880   93.5698 H       505      M_A    0.0000
   3542 H         115.9910  112.0461   91.8629 H       505      M_A    0.0000
   3543 C         113.7366  110.9721   91.7562 C.3     506      M_A    0.0000
   3544 C         112.5114  110.0747   91.8787 C.3     506      M_A    0.0000
   3545 O         112.8312  108.7889   91.3491 O.3     506      M_A    0.0000
   3546 H         114.2857  110.7372   90.8374 H       506      M_A    0.0000
   3547 H         113.4104  112.0163   91.6912 H       506      M_A    0.0000
   3548 H         111.6977  110.5286   91.2957 H       506      M_A    0.0000
   3549 H         112.1867  109.9811   92.9236 H       506      M_A    0.0000
   3550 C         113.6464  108.0674   92.2478 C.3     507      M_A    0.0000
   3551 C         113.2358  106.6053   92.3699 C.3     507      M_A    0.0000
   3552 O         112.8811  106.3414   93.7265 O.3     507      M_A    0.0000
   3553 H         113.6085  108.5530   93.2295 H       507      M_A    0.0000
   3554 H         114.6810  108.1201   91.8903 H       507      M_A    0.0000
   3555 H         114.0955  105.9852   92.0796 H       507      M_A    0.0000
   3556 H         112.3919  106.3700   91.7077 H       507      M_A    0.0000
   3557 C         112.0072  105.2358   93.8081 C.3     508      M_A    0.0000
   3558 C         112.6514  104.0251   94.4718 C.3     508      M_A    0.0000
   3559 O         112.0710  102.8413   93.9261 O.3     508      M_A    0.0000
   3560 H         111.6677  104.9765   92.7989 H       508      M_A    0.0000
   3561 H         111.1273  105.5361   94.3883 H       508      M_A    0.0000
   3562 H         112.4476  104.0798   95.5504 H       508      M_A    0.0000
   3563 H         113.7388  104.0161   94.3185 H       508      M_A    0.0000
   3564 C         111.2221  103.1550   92.8428 C.3     509      M_A    0.0000
   3565 C         110.0296  102.2125   92.7383 C.3     509      M_A    0.0000
   3566 O         110.3735  101.1339   91.8699 O.3     509      M_A    0.0000
   3567 H         111.8057  103.1290   91.9155 H       509      M_A    0.0000
   3568 H         110.8578  104.1797   92.9780 H       509      M_A    0.0000
   3569 H         109.1853  102.7774   92.3186 H       509      M_A    0.0000
   3570 H         109.7389  101.8242   93.7236 H       509      M_A    0.0000
   3571 C         110.4426   99.9191   92.5856 C.3     510      M_A    0.0000
   3572 C         109.5427   98.8389   91.9985 C.3     510      M_A    0.0000
   3573 O         109.3925   97.7958   92.9604 O.3     510      M_A    0.0000
   3574 H         110.1731  100.1073   93.6311 H       510      M_A    0.0000
   3575 H         111.4809   99.5689   92.5675 H       510      M_A    0.0000
   3576 H         110.0276   98.4473   91.0932 H       510      M_A    0.0000
   3577 H         108.5589   99.2428   91.7248 H       510      M_A    0.0000
   3578 C         108.3239   96.9429   92.6094 C.3     511      M_A    0.0000
   3579 C         108.3883   95.5968   93.3202 C.3     511      M_A    0.0000
   3580 O         107.8411   94.5985   92.4600 O.3     511      M_A    0.0000
   3581 H         108.3288   96.7964   91.5233 H       511      M_A    0.0000
   3582 H         107.3851   97.4426   92.8735 H       511      M_A    0.0000
   3583 H         107.7902   95.6686   94.2395 H       511      M_A    0.0000
   3584 H         109.4203   95.3359   93.5906 H       511      M_A    0.0000
   3585 C         107.3367   93.5146   93.2105 C.3     512      M_A    0.0000
   3586 C         107.7092   92.1628   92.6144 C.3     512      M_A    0.0000
   3587 O         106.6843   91.2233   92.9349 O.3     512      M_A    0.0000
   3588 H         106.2470   93.6082   93.2810 H       512      M_A    0.0000
   3589 H         107.7428   93.5821   94.2262 H       512      M_A    0.0000
   3590 H         108.6621   91.8452   93.0607 H       512      M_A    0.0000
   3591 H         107.8341   92.2265   91.5252 H       512      M_A    0.0000
   3592 C         107.1288   89.9028   92.7082 C.3     513      M_A    0.0000
   3593 C         105.9945   88.9567   92.3343 C.3     513      M_A    0.0000
   3594 O         106.1566   87.7387   93.0595 O.3     513      M_A    0.0000
   3595 H         107.6404   89.5412   93.6073 H       513      M_A    0.0000
   3596 H         107.8616   89.9226   91.8936 H       513      M_A    0.0000
   3597 H         106.0564   88.7614   91.2544 H       513      M_A    0.0000
   3598 H         105.0144   89.3995   92.5567 H       513      M_A    0.0000
   3599 C         104.9905   86.9478   92.9744 C.3     514      M_A    0.0000
   3600 C         105.2524   85.4792   93.2843 C.3     514      M_A    0.0000
   3601 O         104.2203   84.6947   92.6883 O.3     514      M_A    0.0000
   3602 H         104.5642   87.0510   91.9700 H       514      M_A    0.0000
   3603 H         104.2576   87.3392   93.6888 H       514      M_A    0.0000
   3604 H         105.2357   85.3537   94.3761 H       514      M_A    0.0000
   3605 H         106.2331   85.1594   92.9076 H       514      M_A    0.0000
   3606 C         104.3138   83.3485   93.1028 C.3     515      M_A    0.0000
   3607 C         103.5200   82.4022   92.2107 C.3     515      M_A    0.0000
   3608 O         103.1794   81.2400   92.9651 O.3     515      M_A    0.0000
   3609 H         103.9653   83.2712   94.1390 H       515      M_A    0.0000
   3610 H         105.3699   83.0564   93.0842 H       515      M_A    0.0000
   3611 H         104.1565   82.1234   91.3591 H       515      M_A    0.0000
   3612 H         102.6095   82.8825   91.8279 H       515      M_A    0.0000
   3613 C         103.2090   80.0886   92.1490 C.3     516      M_A    0.0000
   3614 C         101.9959   79.1902   92.3557 C.3     516      M_A    0.0000
   3615 O         102.4414   77.8398   92.4739 O.3     516      M_A    0.0000
   3616 H         104.1302   79.5315   92.3544 H       516      M_A    0.0000
   3617 H         103.2414   80.4109   91.1021 H       516      M_A    0.0000
   3618 H         101.3422   79.2940   91.4783 H       516      M_A    0.0000
   3619 H         101.4315   79.4800   93.2521 H       516      M_A    0.0000
   3620 C         102.9003   77.3548   91.2302 C.3     517      M_A    0.0000
   3621 C         101.7765   77.1801   90.2164 C.3     517      M_A    0.0000
   3622 O         101.3496   75.8187   90.2365 O.3     517      M_A    0.0000
   3623 H         103.4160   76.4009   91.3897 H       517      M_A    0.0000
   3624 H         103.6328   78.0667   90.8335 H       517      M_A    0.0000
   3625 H         102.1719   77.4345   89.2230 H       517      M_A    0.0000
   3626 H         100.9299   77.8432   90.4393 H       517      M_A    0.0000
   3627 C         100.1357   75.6864   90.9447 C.3     518      M_A    0.0000
   3628 C         100.3129   74.9964   92.2914 C.3     518      M_A    0.0000
   3629 O          99.6415   73.7379   92.2526 O.3     518      M_A    0.0000
   3630 H          99.4229   75.1290   90.3263 H       518      M_A    0.0000
   3631 H          99.7225   76.6883   91.1074 H       518      M_A    0.0000
   3632 H          99.8643   75.6371   93.0636 H       518      M_A    0.0000
   3633 H         101.3750   74.8490   92.5289 H       518      M_A    0.0000
   3634 C          99.4842   73.2155   93.5545 C.3     519      M_A    0.0000
   3635 C          99.8818   71.7478   93.6511 C.3     519      M_A    0.0000
   3636 O          98.7036   70.9479   93.5630 O.3     519      M_A    0.0000
   3637 H          98.4412   73.3449   93.8653 H       519      M_A    0.0000
   3638 H         100.1099   73.8015   94.2372 H       519      M_A    0.0000
   3639 H         100.3699   71.5909   94.6233 H       519      M_A    0.0000
   3640 H         100.5853   71.4706   92.8547 H       519      M_A    0.0000
   3641 C          98.9720   69.6188   93.9556 C.3     520      M_A    0.0000
   3642 C          98.8226   68.6257   92.8098 C.3     520      M_A    0.0000
   3643 O          97.9871   67.5523   93.2406 O.3     520      M_A    0.0000
   3644 H          98.2999   69.3492   94.7783 H       520      M_A    0.0000
   3645 H          99.9986   69.5742   94.3364 H       520      M_A    0.0000
   3646 H          99.8222   68.2449   92.5573 H       520      M_A    0.0000
   3647 H          98.3923   69.1036   91.9196 H       520      M_A    0.0000
   3648 C          98.3016   66.3647   92.5455 C.3     521      M_A    0.0000
   3649 C          97.0695   65.5288   92.2222 C.3     521      M_A    0.0000
   3650 O          97.2971   64.1900   92.6599 O.3     521      M_A    0.0000
   3651 H          99.0079   65.7791   93.1449 H       521      M_A    0.0000
   3652 H          98.8046   66.6373   91.6108 H       521      M_A    0.0000
   3653 H          96.9220   65.5474   91.1332 H       521      M_A    0.0000
   3654 H          96.1717   65.9355   92.7065 H       521      M_A    0.0000
   3655 C          96.1302   63.4101   92.5088 C.3     522      M_A    0.0000
   3656 C          96.2699   62.0196   93.1158 C.3     522      M_A    0.0000
   3657 O          95.3809   61.1330   92.4379 O.3     522      M_A    0.0000
   3658 H          95.8900   63.3336   91.4423 H       522      M_A    0.0000
   3659 H          95.3019   63.9334   92.9998 H       522      M_A    0.0000
   3660 H          95.9976   62.0834   94.1787 H       522      M_A    0.0000
   3661 H          97.3013   61.6506   93.0377 H       522      M_A    0.0000
   3662 C          95.4822   59.8265   92.9626 C.3     523      M_A    0.0000
   3663 C          94.7651   58.7912   92.1050 C.3     523      M_A    0.0000
   3664 O          94.3281   57.7242   92.9454 O.3     523      M_A    0.0000
   3665 H          95.0754   59.8202   93.9802 H       523      M_A    0.0000
   3666 H          96.5442   59.5641   93.0272 H       523      M_A    0.0000
   3667 H          95.4792   58.4134   91.3598 H       523      M_A    0.0000
   3668 H          93.9073   59.2318   91.5795 H       523      M_A    0.0000
   3669 C          94.3820   56.4927   92.2577 C.3     524      M_A    0.0000
   3670 C          93.0715   55.7193   92.3333 C.3     524      M_A    0.0000
   3671 O          93.3669   54.3270   92.4333 O.3     524      M_A    0.0000
   3672 H          95.1994   55.8908   92.6709 H       524      M_A    0.0000
   3673 H          94.6172   56.6966   91.2069 H       524      M_A    0.0000
   3674 H          92.5060   55.9174   91.4119 H       524      M_A    0.0000
   3675 H          92.4675   56.0385   93.1932 H       524      M_A    0.0000
   3676 C          92.2701   53.5513   91.9998 C.3     525      M_A    0.0000
   3677 C          92.0268   52.3327   92.8814 C.3     525      M_A    0.0000
   3678 O          91.6044   51.2480   92.0563 O.3     525      M_A    0.0000
   3679 H          92.4437   53.2387   90.9639 H       525      M_A    0.0000
   3680 H          91.3761   54.1851   92.0106 H       525      M_A    0.0000
   3681 H          91.2362   52.5862   93.6015 H       525      M_A    0.0000
   3682 H          92.9324   52.0529   93.4361 H       525      M_A    0.0000
   3683 C          91.0472   50.2132   92.8383 C.3     526      M_A    0.0000
   3684 C          91.3399   48.8281   92.2752 C.3     526      M_A    0.0000
   3685 O          90.2556   47.9615   92.6052 O.3     526      M_A    0.0000
   3686 H          89.9650   50.3687   92.9136 H       526      M_A    0.0000
   3687 H          91.4647   50.2843   93.8490 H       526      M_A    0.0000
   3688 H          92.2671   48.4618   92.7379 H       526      M_A    0.0000
   3689 H          91.4782   48.8599   91.1861 H       526      M_A    0.0000
   3690 C          89.1352   48.2305   91.7896 C.3     527      M_A    0.0000
   3691 C          88.0888   47.1245   91.8448 C.3     527      M_A    0.0000
   3692 O          88.4335   46.1204   90.8915 O.3     527      M_A    0.0000
   3693 H          89.4744   48.3776   90.7579 H       527      M_A    0.0000
   3694 H          88.6822   49.1692   92.1280 H       527      M_A    0.0000
   3695 H          87.1146   47.5650   91.5899 H       527      M_A    0.0000
   3696 H          88.0246   46.6840   92.8487 H       527      M_A    0.0000
   3697 C          87.8887   44.8720   91.2620 C.3     528      M_A    0.0000
   3698 C          88.5718   44.2720   92.4846 C.3     528      M_A    0.0000
   3699 O          88.5110   42.8496   92.3907 O.3     528      M_A    0.0000
   3700 H          87.9656   44.1848   90.4118 H       528      M_A    0.0000
   3701 H          86.8241   45.0135   91.4802 H       528      M_A    0.0000
   3702 H          88.0302   44.6124   93.3782 H       528      M_A    0.0000
   3703 H          89.6173   44.5997   92.5599 H       528      M_A    0.0000
   3704 C          87.3909   42.3504   93.0900 C.3     529      M_A    0.0000
   3705 C          87.5032   40.8617   93.3940 C.3     529      M_A    0.0000
   3706 O          86.6026   40.1520   92.5448 O.3     529      M_A    0.0000
   3707 H          86.4879   42.5480   92.5011 H       529      M_A    0.0000
   3708 H          87.3010   42.9025   94.0324 H       529      M_A    0.0000
   3709 H          87.2264   40.7076   94.4464 H       529      M_A    0.0000
   3710 H          88.5285   40.4985   93.2423 H       529      M_A    0.0000
   3711 C          86.4326   38.8250   92.9950 C.3     530      M_A    0.0000
   3712 C          86.9229   37.7944   91.9856 C.3     530      M_A    0.0000
   3713 O          86.2699   36.5527   92.2456 O.3     530      M_A    0.0000
   3714 H          85.3727   38.6591   93.2187 H       530      M_A    0.0000
   3715 H          86.9926   38.7054   93.9294 H       530      M_A    0.0000
   3716 H          88.0085   37.6815   92.1147 H       530      M_A    0.0000
   3717 H          86.7221   38.1166   90.9551 H       530      M_A    0.0000
   3718 C          87.1347   35.4687   91.9813 C.3     531      M_A    0.0000
   3719 C          86.3968   34.2410   91.4621 C.3     531      M_A    0.0000
   3720 O          86.3824   33.2484   92.4870 O.3     531      M_A    0.0000
   3721 H          87.6824   35.2201   92.8974 H       531      M_A    0.0000
   3722 H          87.8675   35.7893   91.2322 H       531      M_A    0.0000
   3723 H          86.9389   33.8647   90.5832 H       531      M_A    0.0000
   3724 H          85.3694   34.4883   91.1634 H       531      M_A    0.0000
   3725 C          85.4249   32.2509   92.2027 C.3     532      M_A    0.0000
   3726 C          84.5016   31.9694   93.3815 C.3     532      M_A    0.0000
   3727 O          84.6998   30.6217   93.8063 O.3     532      M_A    0.0000
   3728 H          85.9455   31.3339   91.9041 H       532      M_A    0.0000
   3729 H          84.8242   32.5854   91.3494 H       532      M_A    0.0000
   3730 H          83.4652   32.1072   93.0424 H       532      M_A    0.0000
   3731 H          84.6945   32.6586   94.2145 H       532      M_A    0.0000
   3732 C          85.1015   29.8107   92.7231 C.3     533      M_A    0.0000
   3733 C          83.9817   28.9109   92.2153 C.3     533      M_A    0.0000
   3734 O          84.2743   27.5639   92.5841 O.3     533      M_A    0.0000
   3735 H          85.9608   29.2050   93.0327 H       533      M_A    0.0000
   3736 H          85.4320   30.4652   91.9086 H       533      M_A    0.0000
   3737 H          83.9435   29.0002   91.1206 H       533      M_A    0.0000
   3738 H          83.0091   29.2111   92.6277 H       533      M_A    0.0000
   3739 C          85.3566   27.0632   91.8287 C.3     534      M_A    0.0000
   3740 C          84.9182   26.4690   90.4960 C.3     534      M_A    0.0000
   3741 O          84.7742   25.0577   90.6495 O.3     534      M_A    0.0000
   3742 H          85.8849   26.3087   92.4225 H       534      M_A    0.0000
   3743 H          86.0542   27.8873   91.6410 H       534      M_A    0.0000
   3744 H          85.6981   26.6878   89.7530 H       534      M_A    0.0000
   3745 H          83.9719   26.9087   90.1536 H       534      M_A    0.0000
   3746 C          83.5918   24.7505   91.3567 C.3     535      M_A    0.0000
   3747 C          83.2000   23.2829   91.2374 C.3     535      M_A    0.0000
   3748 O          81.8731   23.1216   91.7364 O.3     535      M_A    0.0000
   3749 H          82.7811   25.3884   90.9868 H       535      M_A    0.0000
   3750 H          83.7510   24.9937   92.4133 H       535      M_A    0.0000
   3751 H          83.9026   22.6930   91.8427 H       535      M_A    0.0000
   3752 H          83.2552   22.9373   90.1965 H       535      M_A    0.0000
   3753 C          81.7280   21.8707   92.3743 C.3     536      M_A    0.0000
   3754 C          80.7326   20.9610   91.6651 C.3     536      M_A    0.0000
   3755 O          80.3005   19.9545   92.5795 O.3     536      M_A    0.0000
   3756 H          81.4156   22.0354   93.4117 H       536      M_A    0.0000
   3757 H          82.7081   21.3809   92.3957 H       536      M_A    0.0000
   3758 H          81.2449   20.4966   90.8108 H       536      M_A    0.0000
   3759 H          79.8683   21.5270   91.2926 H       536      M_A    0.0000
   3760 C          79.5391   18.9693   91.9145 C.3     537      M_A    0.0000
   3761 C          79.0428   17.8768   92.8534 C.3     537      M_A    0.0000
   3762 O          78.7709   16.7040   92.0876 O.3     537      M_A    0.0000
   3763 H          80.1465   18.5315   91.1142 H       537      M_A    0.0000
   3764 H          78.6770   19.4591   91.4478 H       537      M_A    0.0000
   3765 H          78.1206   18.2336   93.3331 H       537      M_A    0.0000
   3766 H          79.7825   17.6534   93.6338 H       537      M_A    0.0000
   3767 C          77.8708   15.8586   92.7714 C.3     538      M_A    0.0000
   3768 C          78.1656   14.3808   92.5461 C.3     538      M_A    0.0000
   3769 O          76.9328   13.6964   92.3276 O.3     538      M_A    0.0000
   3770 H          76.8497   16.0927   92.4495 H       538      M_A    0.0000
   3771 H          77.9405   16.0782   93.8428 H       538      M_A    0.0000
   3772 H          78.6565   13.9904   93.4486 H       538      M_A    0.0000
   3773 H          78.8354   14.2326   91.6884 H       538      M_A    0.0000
   3774 C          77.1660   12.3808   91.8722 C.3     539      M_A    0.0000
   3775 C          75.9543   11.4741   92.0490 C.3     539      M_A    0.0000
   3776 O          76.3959   10.1174   92.0608 O.3     539      M_A    0.0000
   3777 H          78.0278   11.9672   92.4082 H       539      M_A    0.0000
   3778 H          77.4264   12.4270   90.8087 H       539      M_A    0.0000
   3779 H          75.2777   11.6410   91.1991 H       539      M_A    0.0000
   3780 H          75.4158   11.7026   92.9784 H       539      M_A    0.0000
   3781 C          75.3031    9.2379   92.2192 C.3     540      M_A    0.0000
   3782 C          75.7371    7.7916   92.4218 C.3     540      M_A    0.0000
   3783 O          74.7159    6.9324   91.9169 O.3     540      M_A    0.0000
   3784 H          74.6535    9.3171   91.3401 H       540      M_A    0.0000
   3785 H          74.7244    9.5635   93.0909 H       540      M_A    0.0000
   3786 H          75.8691    7.6239   93.4999 H       540      M_A    0.0000
   3787 H          76.6884    7.5843   91.9137 H       540      M_A    0.0000
   3788 C          75.2281    5.6408   91.6677 C.3     541      M_A    0.0000
   3789 C          74.1315    4.6046   91.4546 C.3     541      M_A    0.0000
   3790 O          74.5169    3.3914   92.0992 O.3     541      M_A    0.0000
   3791 H          75.8685    5.3450   92.5064 H       541      M_A    0.0000
   3792 H          75.8555    5.6877   90.7704 H       541      M_A    0.0000
   3793 H          74.0266    4.4379   90.3733 H       541      M_A    0.0000
   3794 H          73.1691    4.9529   91.8527 H       541      M_A    0.0000
   3795 C          73.8858    2.2826   91.4950 C.3     542      M_A    0.0000
   3796 C          72.6959    1.7735   92.2988 C.3     542      M_A    0.0000
   3797 O          72.5381    0.3777   92.0485 O.3     542      M_A    0.0000
   3798 H          74.6230    1.4822   91.3646 H       542      M_A    0.0000
   3799 H          73.5424    2.5842   90.4990 H       542      M_A    0.0000
   3800 H          71.8016    2.3179   91.9644 H       542      M_A    0.0000
   3801 H          72.8343    1.9496   93.3739 H       542      M_A    0.0000
   3802 C          72.0642    0.1559   90.7374 C.3     543      M_A    0.0000
   3803 C          71.2753   -1.1412   90.6090 C.3     543      M_A    0.0000
   3804 O          72.1113   -2.1273   90.0053 O.3     543      M_A    0.0000
   3805 H          72.9165    0.1487   90.0484 H       543      M_A    0.0000
   3806 H          71.4186    0.9966   90.4592 H       543      M_A    0.0000
   3807 H          70.4028   -0.9468   89.9696 H       543      M_A    0.0000
   3808 H          70.9235   -1.4941   91.5876 H       543      M_A    0.0000
   3809 C          73.4631   -1.9171   90.3534 C.3     544      M_A    0.0000
   3810 C          73.7832   -0.4494   90.6078 C.3     544      M_A    0.0000
   3811 O          74.5282    0.0550   89.5004 O.3     544      M_A    0.0000
   3812 H          74.1008   -2.3089   89.5529 H       544      M_A    0.0000
   3813 H          73.6770   -2.4927   91.2611 H       544      M_A    0.0000
   3814 H          74.3856   -0.3867   91.5250 H       544      M_A    0.0000
   3815 H          72.8680    0.1417   90.7461 H       544      M_A    0.0000
   3816 C          74.8577    1.4135   89.6974 C.3     545      M_A    0.0000
   3817 C          73.6293    2.3122   89.7669 C.3     545      M_A    0.0000
   3818 O          72.9895    2.3118   88.4915 O.3     545      M_A    0.0000
   3819 H          75.5183    1.7397   88.8861 H       545      M_A    0.0000
   3820 H          75.4167    1.4982   90.6362 H       545      M_A    0.0000
   3821 H          73.9650    3.3282   90.0178 H       545      M_A    0.0000
   3822 H          72.9276    1.9718   90.5400 H       545      M_A    0.0000
   3823 C          73.3329    3.4694   87.7602 C.3     546      M_A    0.0000
   3824 C          72.6611    4.7262   88.2992 C.3     546      M_A    0.0000
   3825 O          72.8956    5.7976   87.3866 O.3     546      M_A    0.0000
   3826 H          73.0622    3.3184   86.7090 H       546      M_A    0.0000
   3827 H          74.4203    3.5958   87.8089 H       546      M_A    0.0000
   3828 H          73.1095    4.9597   89.2751 H       546      M_A    0.0000
   3829 H          71.5815    4.5764   88.4341 H       546      M_A    0.0000
   3830 C          72.0000    6.8622   87.6256 C.3     547      M_A    0.0000
   3831 C          72.7038    8.1272   88.1008 C.3     547      M_A    0.0000
   3832 O          72.6470    8.1747   89.5257 O.3     547      M_A    0.0000
   3833 H          71.2582    6.5426   88.3663 H       547      M_A    0.0000
   3834 H          71.4670    7.0781   86.6927 H       547      M_A    0.0000
   3835 H          72.1745    8.9913   87.6752 H       547      M_A    0.0000
   3836 H          73.7491    8.1538   87.7648 H       547      M_A    0.0000
   3837 C          72.9448    9.4726   89.9943 C.3     548      M_A    0.0000
   3838 C          73.6722    9.4617   91.3330 C.3     548      M_A    0.0000
   3839 O          72.7268    9.1849   92.3652 O.3     548      M_A    0.0000
   3840 H          72.0125   10.0429   90.0763 H       548      M_A    0.0000
   3841 H          73.5749    9.9704   89.2486 H       548      M_A    0.0000
   3842 H          74.1157   10.4554   91.4873 H       548      M_A    0.0000
   3843 H          74.4743    8.7117   91.3465 H       548      M_A    0.0000
   3844 C          73.3848    8.8779   93.5758 C.3     549      M_A    0.0000
   3845 C          73.6548    7.3871   93.7365 C.3     549      M_A    0.0000
   3846 O          73.0500    6.9406   94.9493 O.3     549      M_A    0.0000
   3847 H          72.7781    9.2436   94.4121 H       549      M_A    0.0000
   3848 H          74.3379    9.4184   93.5948 H       549      M_A    0.0000
   3849 H          74.7432    7.2417   93.7845 H       549      M_A    0.0000
   3850 H          73.2599    6.8149   92.8863 H       549      M_A    0.0000
   3851 C          73.3632    7.8129   96.0140 C.3     550      M_A    0.0000
   3852 C          74.8589    8.0754   96.1385 C.3     550      M_A    0.0000
   3853 O          75.0541    9.4336   96.5297 O.3     550      M_A    0.0000
   3854 H          72.9761    7.3876   96.9469 H       550      M_A    0.0000
   3855 H          72.8460    8.7637   95.8420 H       550      M_A    0.0000
   3856 H          75.3182    7.8983   95.1559 H       550      M_A    0.0000
   3857 H          75.3236    7.4023   96.8714 H       550      M_A    0.0000
   3858 C          74.7361   10.3093   95.4692 C.3     551      M_A    0.0000
   3859 C          75.5948   11.5679   95.4684 C.3     551      M_A    0.0000
   3860 O          74.8399   12.6373   96.0360 O.3     551      M_A    0.0000
   3861 H          73.6753   10.5766   95.5356 H       551      M_A    0.0000
   3862 H          74.8857    9.7733   94.5251 H       551      M_A    0.0000
   3863 H          75.8530   11.8028   94.4262 H       551      M_A    0.0000
   3864 H          76.5229   11.4194   96.0366 H       551      M_A    0.0000
   3865 C          75.0157   13.8232   95.2908 C.3     552      M_A    0.0000
   3866 C          76.4829   14.1444   95.0346 C.3     552      M_A    0.0000
   3867 O          76.9032   15.1391   95.9671 O.3     552      M_A    0.0000
   3868 H          74.5359   14.6519   95.8239 H       552      M_A    0.0000
   3869 H          74.5023   13.7040   94.3300 H       552      M_A    0.0000
   3870 H          76.5727   14.5297   94.0092 H       552      M_A    0.0000
   3871 H          77.1113   13.2489   95.1309 H       552      M_A    0.0000
   3872 C          78.1213   14.7690   96.5770 C.3     553      M_A    0.0000
   3873 C          78.7437   15.9026   97.3825 C.3     553      M_A    0.0000
   3874 O          80.0215   16.2105   96.8273 O.3     553      M_A    0.0000
   3875 H          78.8180   14.4306   95.8016 H       553      M_A    0.0000
   3876 H          77.9275   13.9208   97.2433 H       553      M_A    0.0000
   3877 H          78.8586   15.5593   98.4202 H       553      M_A    0.0000
   3878 H          78.1052   16.7961   97.3754 H       553      M_A    0.0000
   3879 C          80.2997   15.3774   95.7222 C.3     554      M_A    0.0000
   3880 C          81.7919   15.2524   95.4411 C.3     554      M_A    0.0000
   3881 O          81.9742   14.9677   94.0549 O.3     554      M_A    0.0000
   3882 H          79.7818   15.7723   94.8407 H       554      M_A    0.0000
   3883 H          79.8902   14.3826   95.9309 H       554      M_A    0.0000
   3884 H          82.1843   14.4249   96.0487 H       554      M_A    0.0000
   3885 H          82.3283   16.1723   95.7100 H       554      M_A    0.0000
   3886 C          81.7623   16.1253   93.2753 C.3     555      M_A    0.0000
   3887 C          81.1869   15.8107   91.9001 C.3     555      M_A    0.0000
   3888 O          82.0153   16.4155   90.9082 O.3     555      M_A    0.0000
   3889 H          82.7118   16.6628   93.1728 H       555      M_A    0.0000
   3890 H          81.0665   16.7787   93.8136 H       555      M_A    0.0000
   3891 H          80.1734   16.2330   91.8507 H       555      M_A    0.0000
   3892 H          81.1260   14.7274   91.7300 H       555      M_A    0.0000
   3893 C          81.3577   16.4461   89.6594 C.3     556      M_A    0.0000
   3894 C          82.1959   17.1028   88.5696 C.3     556      M_A    0.0000
   3895 O          81.6685   18.4024   88.3073 O.3     556      M_A    0.0000
   3896 H          80.4049   16.9757   89.7729 H       556      M_A    0.0000
   3897 H          81.1322   15.4149   89.3651 H       556      M_A    0.0000
   3898 H          82.1270   16.4807   87.6662 H       556      M_A    0.0000
   3899 H          83.2506   17.1777   88.8665 H       556      M_A    0.0000
   3900 C          82.1811   18.9141   87.0957 C.3     557      M_A    0.0000
   3901 C          83.4315   19.7610   87.2975 C.3     557      M_A    0.0000
   3902 O          83.2307   21.0290   86.6748 O.3     557      M_A    0.0000
   3903 H          81.4013   19.5048   86.6017 H       557      M_A    0.0000
   3904 H          82.4230   18.0689   86.4414 H       557      M_A    0.0000
   3905 H          84.2753   19.2399   86.8238 H       557      M_A    0.0000
   3906 H          83.6550   19.8968   88.3641 H       557      M_A    0.0000
   3907 C          84.4556   21.7168   86.5361 C.3     558      M_A    0.0000
   3908 C          84.6864   22.7359   87.6450 C.3     558      M_A    0.0000
   3909 O          86.0341   23.1981   87.5684 O.3     558      M_A    0.0000
   3910 H          84.4759   22.2119   85.5586 H       558      M_A    0.0000
   3911 H          85.2666   20.9799   86.5527 H       558      M_A    0.0000
   3912 H          84.5159   22.2349   88.6083 H       558      M_A    0.0000
   3913 H          83.9927   23.5831   87.5606 H       558      M_A    0.0000
   3914 C          86.5278   23.5130   88.8528 C.3     559      M_A    0.0000
   3915 C          87.2011   24.8788   88.9052 C.3     559      M_A    0.0000
   3916 O          88.5621   24.7034   89.2960 O.3     559      M_A    0.0000
   3917 H          87.2324   22.7332   89.1633 H       559      M_A    0.0000
   3918 H          85.6873   23.5011   89.5558 H       559      M_A    0.0000
   3919 H          86.6727   25.4901   89.6503 H       559      M_A    0.0000
   3920 H          87.1513   25.3871   87.9329 H       559      M_A    0.0000
   3921 C          89.3642   25.7522   88.7967 C.3     560      M_A    0.0000
   3922 C          89.8639   26.6837   89.8941 C.3     560      M_A    0.0000
   3923 O          89.5672   28.0289   89.5226 O.3     560      M_A    0.0000
   3924 H          88.7880   26.3177   88.0555 H       560      M_A    0.0000
   3925 H          90.2252   25.3106   88.2825 H       560      M_A    0.0000
   3926 H          90.9511   26.5505   89.9842 H       560      M_A    0.0000
   3927 H          89.3986   26.4490   90.8608 H       560      M_A    0.0000
   3928 C          90.2856   28.3972   88.3645 C.3     561      M_A    0.0000
   3929 C          90.7119   29.8599   88.3775 C.3     561      M_A    0.0000
   3930 O          89.6780   30.6432   87.7831 O.3     561      M_A    0.0000
   3931 H          89.6672   28.1925   87.4832 H       561      M_A    0.0000
   3932 H          91.1781   27.7648   88.2989 H       561      M_A    0.0000
   3933 H          91.6360   29.9501   87.7894 H       561      M_A    0.0000
   3934 H          90.9089   30.2102   89.3996 H       561      M_A    0.0000
   3935 C          90.1506   31.9344   87.4639 C.3     562      M_A    0.0000
   3936 C          89.5439   33.0175   88.3472 C.3     562      M_A    0.0000
   3937 O          89.6750   34.2746   87.6850 O.3     562      M_A    0.0000
   3938 H          89.9330   32.1416   86.4099 H       562      M_A    0.0000
   3939 H          91.2396   31.9411   87.5863 H       562      M_A    0.0000
   3940 H          90.0991   33.0335   89.2956 H       562      M_A    0.0000
   3941 H          88.4863   32.8135   88.5611 H       562      M_A    0.0000
   3942 C          88.6442   35.1556   88.0775 C.3     563      M_A    0.0000
   3943 C          89.0382   36.6208   87.9379 C.3     563      M_A    0.0000
   3944 O          87.8707   37.3813   87.6309 O.3     563      M_A    0.0000
   3945 H          88.3663   34.9370   89.1148 H       563      M_A    0.0000
   3946 H          87.7677   34.9593   87.4497 H       563      M_A    0.0000
   3947 H          89.7646   36.7009   87.1170 H       563      M_A    0.0000
   3948 H          89.5029   36.9996   88.8580 H       563      M_A    0.0000
   3949 C          87.6231   38.3430   88.6341 C.3     564      M_A    0.0000
   3950 C          87.9596   39.7599   88.1862 C.3     564      M_A    0.0000
   3951 O          88.8356   40.3475   89.1469 O.3     564      M_A    0.0000
   3952 H          88.2028   38.0820   89.5268 H       564      M_A    0.0000
   3953 H          86.5613   38.2947   88.9011 H       564      M_A    0.0000
   3954 H          87.0225   40.3317   88.1339 H       564      M_A    0.0000
   3955 H          88.4313   39.7646   87.1944 H       564      M_A    0.0000
   3956 C          89.7444   41.2281   88.5213 C.3     565      M_A    0.0000
   3957 C          90.1435   42.3947   89.4164 C.3     565      M_A    0.0000
   3958 O          91.0331   43.2434   88.6925 O.3     565      M_A    0.0000
   3959 H          89.2958   41.6010   87.5935 H       565      M_A    0.0000
   3960 H          90.6421   40.6602   88.2520 H       565      M_A    0.0000
   3961 H          90.6517   41.9862   90.3012 H       565      M_A    0.0000
   3962 H          89.2647   42.9647   89.7464 H       565      M_A    0.0000
   3963 C          91.1708   44.4904   89.3395 C.3     566      M_A    0.0000
   3964 C          92.1658   45.4086   88.6406 C.3     566      M_A    0.0000
   3965 O          93.2396   45.6872   89.5379 O.3     566      M_A    0.0000
   3966 H          91.4796   44.3198   90.3771 H       566      M_A    0.0000
   3967 H          90.1888   44.9764   89.3602 H       566      M_A    0.0000
   3968 H          91.6439   46.3400   88.3796 H       566      M_A    0.0000
   3969 H          92.5536   44.9519   87.7202 H       566      M_A    0.0000
   3970 C          94.2155   46.4939   88.9137 C.3     567      M_A    0.0000
   3971 C          95.0899   47.2391   89.9144 C.3     567      M_A    0.0000
   3972 O          95.5119   48.4688   89.3265 O.3     567      M_A    0.0000
   3973 H          93.7146   47.2053   88.2474 H       567      M_A    0.0000
   3974 H          94.8495   45.8485   88.2953 H       567      M_A    0.0000
   3975 H          95.9636   46.6105   90.1370 H       567      M_A    0.0000
   3976 H          94.5493   47.4354   90.8499 H       567      M_A    0.0000
   3977 C          96.8582   48.3870   88.9097 C.3     568      M_A    0.0000
   3978 C          97.5969   49.7127   89.0443 C.3     568      M_A    0.0000
   3979 O          97.7381   50.2916   87.7479 O.3     568      M_A    0.0000
   3980 H          96.8874   48.0430   87.8695 H       568      M_A    0.0000
   3981 H          97.3622   47.6323   89.5240 H       568      M_A    0.0000
   3982 H          98.5878   49.5078   89.4735 H       568      M_A    0.0000
   3983 H          97.0610   50.4037   89.7087 H       568      M_A    0.0000
   3984 C          97.7127   51.7009   87.8248 C.3     569      M_A    0.0000
   3985 C          99.0846   52.3264   87.6056 C.3     569      M_A    0.0000
   3986 O          99.0972   53.6224   88.2021 O.3     569      M_A    0.0000
   3987 H          97.3158   51.9959   88.8029 H       569      M_A    0.0000
   3988 H          97.0228   52.0739   87.0595 H       569      M_A    0.0000
   3989 H          99.2510   52.4104   86.5224 H       569      M_A    0.0000
   3990 H          99.8811   51.7056   88.0374 H       569      M_A    0.0000
   3991 C         100.4098   54.1403   88.2436 C.3     570      M_A    0.0000
   3992 C         100.4716   55.5376   88.8480 C.3     570      M_A    0.0000
   3993 O         100.9963   56.4357   87.8713 O.3     570      M_A    0.0000
   3994 H         100.8195   54.1506   87.2272 H       570      M_A    0.0000
   3995 H         101.0270   53.4628   88.8443 H       570      M_A    0.0000
   3996 H         101.1385   55.5014   89.7209 H       570      M_A    0.0000
   3997 H          99.4797   55.8760   89.1759 H       570      M_A    0.0000
   3998 C         100.5387   57.7505   88.1050 C.3     571      M_A    0.0000
   3999 C         101.5977   58.8038   87.8040 C.3     571      M_A    0.0000
   4000 O         101.4366   59.8884   88.7169 O.3     571      M_A    0.0000
   4001 H         100.2112   57.8323   89.1477 H       571      M_A    0.0000
   4002 H          99.6655   57.9283   87.4671 H       571      M_A    0.0000
   4003 H         101.4450   59.1549   86.7738 H       571      M_A    0.0000
   4004 H         102.6107   58.3882   87.8884 H       571      M_A    0.0000
   4005 C         102.5759   60.7219   88.7082 C.3     572      M_A    0.0000
   4006 C         102.3002   62.1008   89.2947 C.3     572      M_A    0.0000
   4007 O         103.4734   62.9006   89.1544 O.3     572      M_A    0.0000
   4008 H         102.9391   60.8158   87.6784 H       572      M_A    0.0000
   4009 H         103.3624   60.2340   89.2951 H       572      M_A    0.0000
   4010 H         102.0568   61.9752   90.3591 H       572      M_A    0.0000
   4011 H         101.4518   62.5862   88.7940 H       572      M_A    0.0000
   4012 C         104.6015   62.0917   88.8977 C.3     573      M_A    0.0000
   4013 C         105.9147   62.7977   89.2113 C.3     573      M_A    0.0000
   4014 O         106.3938   63.4226   88.0214 O.3     573      M_A    0.0000
   4015 H         104.5826   61.7795   87.8473 H       573      M_A    0.0000
   4016 H         104.5240   61.1892   89.5145 H       573      M_A    0.0000
   4017 H         106.6345   62.0408   89.5533 H       573      M_A    0.0000
   4018 H         105.7870   63.5465   90.0044 H       573      M_A    0.0000
   4019 C         107.3707   64.3949   88.3266 C.3     574      M_A    0.0000
   4020 C         106.7860   65.6174   89.0229 C.3     574      M_A    0.0000
   4021 O         106.5448   66.6288   88.0458 O.3     574      M_A    0.0000
   4022 H         107.8754   64.6936   87.4008 H       574      M_A    0.0000
   4023 H         108.1200   63.9347   88.9805 H       574      M_A    0.0000
   4024 H         107.5209   65.9739   89.7583 H       574      M_A    0.0000
   4025 H         105.8532   65.3711   89.5476 H       574      M_A    0.0000
   4026 C         105.2894   67.2386   88.2577 C.3     575      M_A    0.0000
   4027 C         104.6378   67.7079   86.9628 C.3     575      M_A    0.0000
   4028 O         104.5276   69.1301   86.9953 O.3     575      M_A    0.0000
   4029 H         105.4165   68.0838   88.9437 H       575      M_A    0.0000
   4030 H         104.6321   66.5100   88.7456 H       575      M_A    0.0000
   4031 H         103.6380   67.2555   86.9018 H       575      M_A    0.0000
   4032 H         105.2202   67.3955   86.0857 H       575      M_A    0.0000
   4033 C         104.0152   69.6193   85.7743 C.3     576      M_A    0.0000
   4034 C         104.8746   70.7270   85.1778 C.3     576      M_A    0.0000
   4035 O         104.0237   71.6550   84.5065 O.3     576      M_A    0.0000
   4036 H         102.9937   69.9811   85.9376 H       576      M_A    0.0000
   4037 H         103.9634   68.7853   85.0653 H       576      M_A    0.0000
   4038 H         105.5700   70.2690   84.4604 H       576      M_A    0.0000
   4039 H         105.4569   71.2430   85.9529 H       576      M_A    0.0000
   4040 C         104.7855   72.6375   83.8379 C.3     577      M_A    0.0000
   4041 C         104.1362   74.0152   83.8816 C.3     577      M_A    0.0000
   4042 O         104.2719   74.6258   82.5991 O.3     577      M_A    0.0000
   4043 H         104.9353   72.3240   82.7985 H       577      M_A    0.0000
   4044 H         105.7708   72.6909   84.3146 H       577      M_A    0.0000
   4045 H         104.6602   74.6143   84.6395 H       577      M_A    0.0000
   4046 H         103.0750   73.9489   84.1564 H       577      M_A    0.0000
   4047 C         103.1082   75.3523   82.2663 C.3     578      M_A    0.0000
   4048 C         103.2746   76.8534   82.4679 C.3     578      M_A    0.0000
   4049 O         102.0019   77.4166   82.7823 O.3     578      M_A    0.0000
   4050 H         102.2729   74.9810   82.8709 H       578      M_A    0.0000
   4051 H         102.8706   75.1565   81.2146 H       578      M_A    0.0000
   4052 H         103.6533   77.2826   81.5296 H       578      M_A    0.0000
   4053 H         103.9916   77.0723   83.2704 H       578      M_A    0.0000
   4054 C         102.0082   78.8126   82.5730 C.3     579      M_A    0.0000
   4055 C         101.3887   79.5837   83.7319 C.3     579      M_A    0.0000
   4056 O         101.2764   80.9566   83.3600 O.3     579      M_A    0.0000
   4057 H         101.4723   79.0345   81.6431 H       579      M_A    0.0000
   4058 H         103.0474   79.1354   82.4432 H       579      M_A    0.0000
   4059 H         102.0538   79.4837   84.6011 H       579      M_A    0.0000
   4060 H         100.4007   79.1834   83.9962 H       579      M_A    0.0000
   4061 C         101.0311   81.7624   84.4928 C.3     580      M_A    0.0000
   4062 C         100.7803   83.2215   84.1332 C.3     580      M_A    0.0000
   4063 O         102.0079   83.9392   84.2508 O.3     580      M_A    0.0000
   4064 H         101.8844   81.6836   85.1759 H       580      M_A    0.0000
   4065 H         100.1514   81.3654   85.0121 H       580      M_A    0.0000
   4066 H         100.0413   83.6240   84.8402 H       580      M_A    0.0000
   4067 H         100.3832   83.3199   83.1140 H       580      M_A    0.0000
   4068 C         101.8862   85.2312   83.6952 C.3     581      M_A    0.0000
   4069 C         101.7306   85.2072   82.1798 C.3     581      M_A    0.0000
   4070 O         102.0895   86.4876   81.6626 O.3     581      M_A    0.0000
   4071 H         102.7659   85.8220   83.9746 H       581      M_A    0.0000
   4072 H         101.0073   85.7135   84.1377 H       581      M_A    0.0000
   4073 H         100.6778   84.9912   81.9493 H       581      M_A    0.0000
   4074 H         102.3578   84.4286   81.7254 H       581      M_A    0.0000
   4075 C         101.8413   87.4987   82.6159 C.3     582      M_A    0.0000
   4076 C         101.6780   88.8754   81.9837 C.3     582      M_A    0.0000
   4077 O         102.8007   89.6796   82.3425 O.3     582      M_A    0.0000
   4078 H         102.6626   87.5119   83.3414 H       582      M_A    0.0000
   4079 H         100.9235   87.2421   83.1569 H       582      M_A    0.0000
   4080 H         100.7547   89.3231   82.3775 H       582      M_A    0.0000
   4081 H         101.5982   88.8068   80.8906 H       582      M_A    0.0000
   4082 C         103.2280   90.4584   81.2454 C.3     583      M_A    0.0000
   4083 C         102.7238   91.8946   81.3120 C.3     583      M_A    0.0000
   4084 O         102.8328   92.4785   80.0147 O.3     583      M_A    0.0000
   4085 H         102.8886   89.9822   80.3185 H       583      M_A    0.0000
   4086 H         104.3238   90.4638   81.2347 H       583      M_A    0.0000
   4087 H         103.3548   92.4439   82.0248 H       583      M_A    0.0000
   4088 H         101.6822   91.9374   81.6576 H       583      M_A    0.0000
   4089 C         104.1856   92.7058   79.6815 C.3     584      M_A    0.0000
   4090 C         104.4306   94.1102   79.1438 C.3     584      M_A    0.0000
   4091 O         104.6220   94.0326   77.7320 O.3     584      M_A    0.0000
   4092 H         104.4996   91.9592   78.9432 H       584      M_A    0.0000
   4093 H         104.7906   92.5571   80.5831 H       584      M_A    0.0000
   4094 H         105.3370   94.5049   79.6240 H       584      M_A    0.0000
   4095 H         103.5903   94.7789   79.3734 H       584      M_A    0.0000
   4096 C         103.3920   93.8224   77.0721 C.3     585      M_A    0.0000
   4097 C         103.0437   94.9474   76.1054 C.3     585      M_A    0.0000
   4098 O         102.6253   96.0847   76.8584 O.3     585      M_A    0.0000
   4099 H         102.6010   93.7117   77.8225 H       585      M_A    0.0000
   4100 H         103.4575   92.8802   76.5163 H       585      M_A    0.0000
   4101 H         102.2228   94.6009   75.4619 H       585      M_A    0.0000
   4102 H         103.9013   95.2104   75.4718 H       585      M_A    0.0000
   4103 C         103.6505   97.0537   76.9108 C.3     586      M_A    0.0000
   4104 C         104.1495   97.3055   78.3282 C.3     586      M_A    0.0000
   4105 O         104.8538   98.5462   78.3517 O.3     586      M_A    0.0000
   4106 H         103.2804   97.9863   76.4701 H       586      M_A    0.0000
   4107 H         104.4859   96.7029   76.2943 H       586      M_A    0.0000
   4108 H         104.8272   96.4844   78.6012 H       586      M_A    0.0000
   4109 H         103.3190   97.3307   79.0463 H       586      M_A    0.0000
   4110 C         103.9534   99.6324   78.3052 C.3     587      M_A    0.0000
   4111 C         104.4292  100.7515   77.3873 C.3     587      M_A    0.0000
   4112 O         105.2569  101.6386   78.1382 O.3     587      M_A    0.0000
   4113 H         103.8063  100.0152   79.3215 H       587      M_A    0.0000
   4114 H         102.9867   99.2616   77.9462 H       587      M_A    0.0000
   4115 H         103.5439  101.2875   77.0172 H       587      M_A    0.0000
   4116 H         104.9858  100.3546   76.5277 H       587      M_A    0.0000
   4117 C         105.2999  102.9134   77.5336 C.3     588      M_A    0.0000
   4118 C         106.4499  103.0565   76.5445 C.3     588      M_A    0.0000
   4119 O         107.4405  103.9105   77.1148 O.3     588      M_A    0.0000
   4120 H         105.3796  103.6754   78.3173 H       588      M_A    0.0000
   4121 H         104.3526  103.0755   77.0070 H       588      M_A    0.0000
   4122 H         106.0526  103.5058   75.6235 H       588      M_A    0.0000
   4123 H         106.8904  102.0808   76.2991 H       588      M_A    0.0000
   4124 C         108.6872  103.7229   76.4799 C.3     589      M_A    0.0000
   4125 C         109.7191  104.7658   76.8908 C.3     589      M_A    0.0000
   4126 O         110.3936  105.2276   75.7214 O.3     589      M_A    0.0000
   4127 H         108.5396  103.7459   75.3941 H       589      M_A    0.0000
   4128 H         109.0602  102.7269   76.7439 H       589      M_A    0.0000
   4129 H         110.4355  104.2855   77.5720 H       589      M_A    0.0000
   4130 H         109.2488  105.6103   77.4121 H       589      M_A    0.0000
   4131 C         111.7512  105.4954   76.0009 C.3     590      M_A    0.0000
   4132 C         111.9625  106.8669   76.6300 C.3     590      M_A    0.0000
   4133 O         112.9698  107.5581   75.8930 O.3     590      M_A    0.0000
   4134 H         112.3276  105.4136   75.0723 H       590      M_A    0.0000
   4135 H         112.1180  104.7255   76.6891 H       590      M_A    0.0000
   4136 H         112.2926  106.7179   77.6677 H       590      M_A    0.0000
   4137 H         111.0329  107.4517   76.6364 H       590      M_A    0.0000
   4138 C         113.4413  108.6742   76.6173 C.3     591      M_A    0.0000
   4139 C         112.6631  109.9471   76.3081 C.3     591      M_A    0.0000
   4140 O         113.5603  111.0554   76.3577 O.3     591      M_A    0.0000
   4141 H         114.5045  108.8187   76.3944 H       591      M_A    0.0000
   4142 H         113.3528  108.4514   77.6866 H       591      M_A    0.0000
   4143 H         111.8820  110.0624   77.0727 H       591      M_A    0.0000
   4144 H         112.1849  109.8940   75.3209 H       591      M_A    0.0000
   4145 C         112.9479  112.2173   75.8406 C.3     592      M_A    0.0000
   4146 C         112.8035  113.3193   76.8828 C.3     592      M_A    0.0000
   4147 O         111.9322  114.3249   76.3677 O.3     592      M_A    0.0000
   4148 H         111.9651  111.9502   75.4356 H       592      M_A    0.0000
   4149 H         113.5603  112.5875   75.0106 H       592      M_A    0.0000
   4150 H         113.7997  113.7451   77.0678 H       592      M_A    0.0000
   4151 H         112.4070  112.9262   77.8285 H       592      M_A    0.0000
   4152 C         111.7237  115.3425   77.3236 C.3     593      M_A    0.0000
   4153 C         111.4509  116.6998   76.6875 C.3     593      M_A    0.0000
   4154 O         111.6323  117.7130   77.6755 O.3     593      M_A    0.0000
   4155 H         112.6021  115.4017   77.9763 H       593      M_A    0.0000
   4156 H         110.8663  115.0593   77.9446 H       593      M_A    0.0000
   4157 H         110.4113  116.7055   76.3308 H       593      M_A    0.0000
   4158 H         112.1174  116.8829   75.8340 H       593      M_A    0.0000
   4159 C         112.9273  118.2682   77.5895 C.3     594      M_A    0.0000
   4160 C         112.9560  119.7504   77.9415 C.3     594      M_A    0.0000
   4161 O         113.2689  120.4941   76.7647 O.3     594      M_A    0.0000
   4162 H         113.3130  118.1140   76.5753 H       594      M_A    0.0000
   4163 H         113.5807  117.7235   78.2804 H       594      M_A    0.0000
   4164 H         113.7354  119.9046   78.7009 H       594      M_A    0.0000
   4165 H         111.9932  120.0830   78.3518 H       594      M_A    0.0000
   4166 C         112.9401  121.8565   76.9329 C.3     595      M_A    0.0000
   4167 C         111.6448  122.2400   76.2282 C.3     595      M_A    0.0000
   4168 O         111.9671  122.9340   75.0239 O.3     595      M_A    0.0000
   4169 H         113.7681  122.4702   76.5601 H       595      M_A    0.0000
   4170 H         112.8360  122.0544   78.0057 H       595      M_A    0.0000
   4171 H         111.0744  122.8978   76.8990 H       595      M_A    0.0000
   4172 H         111.0358  121.3548   76.0008 H       595      M_A    0.0000
   4173 C         111.7008  122.1277   73.8962 C.3     596      M_A    0.0000
   4174 C         111.7235  122.9150   72.5920 C.3     596      M_A    0.0000
   4175 O         110.3832  123.0706   72.1281 O.3     596      M_A    0.0000
   4176 H         110.7261  121.6442   74.0279 H       596      M_A    0.0000
   4177 H         112.4602  121.3389   73.8515 H       596      M_A    0.0000
   4178 H         112.3099  122.3428   71.8594 H       596      M_A    0.0000
   4179 H         112.1917  123.8993   72.7268 H       596      M_A    0.0000
   4180 C         110.3668  123.4859   70.7790 C.3     597      M_A    0.0000
   4181 C         111.2255  124.7202   70.5333 C.3     597      M_A    0.0000
   4182 O         110.3988  125.7542   70.0011 O.3     597      M_A    0.0000
   4183 H         109.3306  123.6819   70.4806 H       597      M_A    0.0000
   4184 H         110.7405  122.6611   70.1617 H       597      M_A    0.0000
   4185 H         112.0058  124.4526   69.8070 H       597      M_A    0.0000
   4186 H         111.7078  125.0628   71.4586 H       597      M_A    0.0000
   4187 C         110.9246  127.0258   70.3162 C.3     598      M_A    0.0000
   4188 C         111.4780  127.7519   69.0963 C.3     598      M_A    0.0000
   4189 O         112.5144  128.6357   69.5211 O.3     598      M_A    0.0000
   4190 H         111.7086  126.9082   71.0728 H       598      M_A    0.0000
   4191 H         110.1232  127.6284   70.7584 H       598      M_A    0.0000
   4192 H         110.6585  128.3259   68.6414 H       598      M_A    0.0000
   4193 H         111.8681  127.0444   68.3524 H       598      M_A    0.0000
   4194 C         111.9775  129.7274   70.2370 C.3     599      M_A    0.0000
   4195 C         112.8165  130.9915   70.0979 C.3     599      M_A    0.0000
   4196 O         113.7871  131.0139   71.1435 O.3     599      M_A    0.0000
   4197 H         111.8871  129.4492   71.2932 H       599      M_A    0.0000
   4198 H         110.9685  129.9238   69.8572 H       599      M_A    0.0000
   4199 H         112.1455  131.8571   70.1904 H       599      M_A    0.0000
   4200 H         113.3154  131.0351   69.1205 H       599      M_A    0.0000
   4201 C         114.7243  132.0483   70.9328 C.3     600      M_A    0.0000
   4202 C         115.6191  131.7941   69.7261 C.3     600      M_A    0.0000
   4203 O         116.8768  132.4306   69.9469 O.3     600      M_A    0.0000
   4204 H         115.3337  132.1646   71.8363 H       600      M_A    0.0000
   4205 H         114.1742  132.9837   70.7799 H       600      M_A    0.0000
   4206 H         115.1296  132.2272   68.8424 H       600      M_A    0.0000
   4207 H         115.7660  130.7191   69.5562 H       600      M_A    0.0000
   4208 C         116.7470  133.8340   69.8682 C.3     601      M_A    0.0000
   4209 C         117.9785  134.5059   69.2736 C.3     601      M_A    0.0000
   4210 O         118.6752  135.1883   70.3152 O.3     601      M_A    0.0000
   4211 H         116.5492  134.2290   70.8712 H       601      M_A    0.0000
   4212 H         115.8770  134.0635   69.2427 H       601      M_A    0.0000
   4213 H         117.6404  135.2253   68.5146 H       601      M_A    0.0000
   4214 H         118.6418  133.7735   68.7944 H       601      M_A    0.0000
   4215 C         119.9798  135.5329   69.9008 C.3     602      M_A    0.0000
   4216 C         120.2003  137.0395   69.8455 C.3     602      M_A    0.0000
   4217 O         121.1592  137.3245   68.8281 O.3     602      M_A    0.0000
   4218 H         120.1691  135.0877   68.9174 H       602      M_A    0.0000
   4219 H         120.6918  135.0927   70.6080 H       602      M_A    0.0000
   4220 H         120.5835  137.3633   70.8234 H       602      M_A    0.0000
   4221 H         119.2632  137.5738   69.6396 H       602      M_A    0.0000
   4222 C         120.8625  138.5488   68.1910 C.3     603      M_A    0.0000
   4223 C         119.6050  138.4757   67.3338 C.3     603      M_A    0.0000
   4224 O         119.3913  139.7486   66.7255 O.3     603      M_A    0.0000
   4225 H         121.7203  138.8467   67.5775 H       603      M_A    0.0000
   4226 H         120.7248  139.3132   68.9641 H       603      M_A    0.0000
   4227 H         118.7595  138.2272   67.9906 H       603      M_A    0.0000
   4228 H         119.6915  137.6995   66.5617 H       603      M_A    0.0000
   4229 C         119.3079  140.7622   67.7045 C.3     604      M_A    0.0000
   4230 C         118.5669  141.9980   67.2095 C.3     604      M_A    0.0000
   4231 O         119.0323  142.3162   65.8987 O.3     604      M_A    0.0000
   4232 H         120.3212  141.0324   68.0228 H       604      M_A    0.0000
   4233 H         118.7828  140.3551   68.5759 H       604      M_A    0.0000
   4234 H         118.7887  142.8259   67.8975 H       604      M_A    0.0000
   4235 H         117.4811  141.8340   67.1937 H       604      M_A    0.0000
   4236 C         118.0945  141.9122   64.9241 C.3     605      M_A    0.0000
   4237 C         118.4154  142.4572   63.5380 C.3     605      M_A    0.0000
   4238 O         117.5092  143.5191   63.2428 O.3     605      M_A    0.0000
   4239 H         117.0958  142.2385   65.2357 H       605      M_A    0.0000
   4240 H         118.0898  140.8170   64.8858 H       605      M_A    0.0000
   4241 H         118.2858  141.6412   62.8132 H       605      M_A    0.0000
   4242 H         119.4507  142.8190   63.4800 H       605      M_A    0.0000
   4243 C         116.7512  143.8604   64.3837 C.3     606      M_A    0.0000
   4244 C         115.5787  144.7771   64.0578 C.3     606      M_A    0.0000
   4245 O         116.0801  146.0883   63.8026 O.3     606      M_A    0.0000
   4246 H         117.4102  144.3377   65.1179 H       606      M_A    0.0000
   4247 H         116.3692  142.9358   64.8309 H       606      M_A    0.0000
   4248 H         114.9084  144.7947   64.9286 H       606      M_A    0.0000
   4249 H         115.0163  144.4134   63.1874 H       606      M_A    0.0000
   4250 C         115.0515  147.0479   63.9203 C.3     607      M_A    0.0000
   4251 C         115.5811  148.4423   64.2313 C.3     607      M_A    0.0000
   4252 O         114.4734  149.3269   64.3934 O.3     607      M_A    0.0000
   4253 H         114.3539  146.7265   64.7021 H       607      M_A    0.0000
   4254 H         114.4999  147.0774   62.9739 H       607      M_A    0.0000
   4255 H         116.2002  148.7679   63.3835 H       607      M_A    0.0000
   4256 H         116.1988  148.4424   65.1393 H       607      M_A    0.0000
   4257 C         113.6915  148.9492   65.5064 C.3     608      M_A    0.0000
   4258 C         112.7749  150.0672   65.9874 C.3     608      M_A    0.0000
   4259 O         111.4622  149.5374   66.1667 O.3     608      M_A    0.0000
   4260 H         114.3575  148.6326   66.3171 H       608      M_A    0.0000
   4261 H         113.0819  148.0848   65.2198 H       608      M_A    0.0000
   4262 H         112.7610  150.8509   65.2170 H       608      M_A    0.0000
   4263 H         113.1361  150.5040   66.9281 H       608      M_A    0.0000
   4264 C         110.5413  150.5695   66.4485 C.3     609      M_A    0.0000
   4265 C         110.9988  151.4703   67.5889 C.3     609      M_A    0.0000
   4266 O         110.1359  152.6051   67.6499 O.3     609      M_A    0.0000
   4267 H         109.5696  150.1226   66.6874 H       609      M_A    0.0000
   4268 H         110.4160  151.1740   65.5430 H       609      M_A    0.0000
   4269 H         112.0278  151.7926   67.3760 H       609      M_A    0.0000
   4270 H         110.9878  150.9373   68.5490 H       609      M_A    0.0000
   4271 C         110.3608  153.3403   68.8337 C.3     610      M_A    0.0000
   4272 C         109.3162  154.4265   69.0586 C.3     610      M_A    0.0000
   4273 O         109.8682  155.6812   68.6628 O.3     610      M_A    0.0000
   4274 H         111.3624  153.7834   68.7915 H       610      M_A    0.0000
   4275 H         110.3406  152.6436   69.6794 H       610      M_A    0.0000
   4276 H         109.0709  154.4459   70.1298 H       610      M_A    0.0000
   4277 H         108.3987  154.2230   68.4904 H       610      M_A    0.0000
   4278 C         108.8449  156.5916   68.3211 C.3     611      M_A    0.0000
   4279 C         109.3392  157.7245   67.4303 C.3     611      M_A    0.0000
   4280 O         109.5485  158.8827   68.2368 O.3     611      M_A    0.0000
   4281 H         108.4095  156.9978   69.2412 H       611      M_A    0.0000
   4282 H         108.0570  156.0405   67.7953 H       611      M_A    0.0000
   4283 H         108.5652  157.9270   66.6767 H       611      M_A    0.0000
   4284 H         110.2699  157.4515   66.9152 H       611      M_A    0.0000
   4285 C         110.1128  159.9275   67.4735 C.3     612      M_A    0.0000
   4286 C         111.0559  160.8060   68.2860 C.3     612      M_A    0.0000
   4287 O         110.5685  162.1467   68.2601 O.3     612      M_A    0.0000
   4288 H         109.3044  160.5337   67.0493 H       612      M_A    0.0000
   4289 H         110.6675  159.4822   66.6399 H       612      M_A    0.0000
   4290 H         112.0503  160.7593   67.8202 H       612      M_A    0.0000
   4291 H         111.1358  160.4547   69.3235 H       612      M_A    0.0000
   4292 C         110.7406  162.7160   66.9799 C.3     613      M_A    0.0000
   4293 C         110.5449  164.2270   66.9772 C.3     613      M_A    0.0000
   4294 O         109.1515  164.5077   66.8534 O.3     613      M_A    0.0000
   4295 H         110.0379  162.2435   66.2840 H       613      M_A    0.0000
   4296 H         111.7552  162.4858   66.6357 H       613      M_A    0.0000
   4297 H         111.0885  164.6388   66.1153 H       613      M_A    0.0000
   4298 H         110.9406  164.6833   67.8944 H       613      M_A    0.0000
   4299 C         108.8213  165.7039   67.5262 C.3     614      M_A    0.0000
   4300 C         108.9031  165.5681   69.0415 C.3     614      M_A    0.0000
   4301 O         107.9908  166.4915   69.6336 O.3     614      M_A    0.0000
   4302 H         107.8122  166.0114   67.2291 H       614      M_A    0.0000
   4303 H         109.5170  166.4848   67.1988 H       614      M_A    0.0000
   4304 H         109.9309  165.8065   69.3494 H       614      M_A    0.0000
   4305 H         108.6665  164.5455   69.3649 H       614      M_A    0.0000
   4306 C         108.6332  167.7161   69.9172 C.3     615      M_A    0.0000
   4307 C         107.7749  168.6482   70.7633 C.3     615      M_A    0.0000
   4308 O         107.6890  169.9124   70.1074 O.3     615      M_A    0.0000
   4309 H         108.9009  168.2034   68.9727 H       615      M_A    0.0000
   4310 H         109.5631  167.4991   70.4548 H       615      M_A    0.0000
   4311 H         108.2626  168.7654   71.7413 H       615      M_A    0.0000
   4312 H         106.7691  168.2355   70.9181 H       615      M_A    0.0000
   4313 C         106.7157  170.7290   70.7226 C.3     616      M_A    0.0000
   4314 C         106.5749  172.0869   70.0462 C.3     616      M_A    0.0000
   4315 O         107.3434  173.0431   70.7749 O.3     616      M_A    0.0000
   4316 H         106.9777  170.8592   71.7788 H       616      M_A    0.0000
   4317 H         105.7533  170.2066   70.6805 H       616      M_A    0.0000
   4318 H         105.5123  172.3675   70.0643 H       616      M_A    0.0000
   4319 H         106.9120  172.0506   69.0016 H       616      M_A    0.0000
   4320 C         107.7932  174.0755   69.9238 C.3     617      M_A    0.0000
   4321 C         108.8670  173.6079   68.9492 C.3     617      M_A    0.0000
   4322 O         109.5788  174.7483   68.4711 O.3     617      M_A    0.0000
   4323 H         108.1738  174.9004   70.5368 H       617      M_A    0.0000
   4324 H         106.9341  174.4512   69.3566 H       617      M_A    0.0000
   4325 H         108.3684  173.0990   68.1122 H       617      M_A    0.0000
   4326 H         109.5615  172.9037   69.4265 H       617      M_A    0.0000
   4327 C         109.1007  175.1395   67.2018 C.3     618      M_A    0.0000
   4328 C         109.8210  176.3654   66.6545 C.3     618      M_A    0.0000
   4329 O         109.1966  176.7553   65.4322 O.3     618      M_A    0.0000
   4330 H         108.0246  175.3348   67.2727 H       618      M_A    0.0000
   4331 H         109.2420  174.3023   66.5090 H       618      M_A    0.0000
   4332 H         110.8687  176.0899   66.4692 H       618      M_A    0.0000
   4333 H         109.7967  177.1971   67.3713 H       618      M_A    0.0000
   4334 C         109.6255  178.0418   65.0405 C.3     619      M_A    0.0000
   4335 C         109.5034  178.2705   63.5391 C.3     619      M_A    0.0000
   4336 O         110.7320  178.8129   63.0574 O.3     619      M_A    0.0000
   4337 H         110.6645  178.1822   65.3600 H       619      M_A    0.0000
   4338 H         109.0127  178.7827   65.5664 H       619      M_A    0.0000
   4339 H         108.6858  178.9850   63.3692 H       619      M_A    0.0000
   4340 H         109.2712  177.3367   63.0097 H       619      M_A    0.0000
   4341 C         111.2957  179.6926   64.0066 C.3     620      M_A    0.0000
   4342 C         112.3269  180.6337   63.3963 C.3     620      M_A    0.0000
   4343 O         113.5068  180.6016   64.1980 O.3     620      M_A    0.0000
   4344 H         111.7521  179.1030   64.8099 H       620      M_A    0.0000
   4345 H         110.4866  180.2856   64.4477 H       620      M_A    0.0000
   4346 H         111.9026  181.6476   63.3939 H       620      M_A    0.0000
   4347 H         112.5662  180.3492   62.3630 H       620      M_A    0.0000
   4348 C         114.6447  180.9176   63.4247 C.3     621      M_A    0.0000
   4349 C         115.5414  181.9518   64.0938 C.3     621      M_A    0.0000
   4350 O         115.7794  183.0154   63.1729 O.3     621      M_A    0.0000
   4351 H         114.3175  181.2805   62.4437 H       621      M_A    0.0000
   4352 H         115.2173  179.9970   63.2649 H       621      M_A    0.0000
   4353 H         116.4901  181.4618   64.3542 H       621      M_A    0.0000
   4354 H         115.0838  182.3442   65.0117 H       621      M_A    0.0000
   4355 C         116.3059  184.1435   63.8383 C.3     622      M_A    0.0000
   4356 C         117.7237  184.4799   63.3933 C.3     622      M_A    0.0000
   4357 O         118.4693  184.9136   64.5299 O.3     622      M_A    0.0000
   4358 H         116.2831  183.9611   64.9187 H       622      M_A    0.0000
   4359 H         115.6533  184.9993   63.6314 H       622      M_A    0.0000
   4360 H         117.6646  185.2895   62.6523 H       622      M_A    0.0000
   4361 H         118.2140  183.6132   62.9301 H       622      M_A    0.0000
   4362 C         117.6248  185.5402   65.4716 C.3     623      M_A    0.0000
   4363 C         118.3955  186.1686   66.6259 C.3     623      M_A    0.0000
   4364 O         118.4918  185.2164   67.6841 O.3     623      M_A    0.0000
   4365 H         116.9096  184.8026   65.8531 H       623      M_A    0.0000
   4366 H         117.0544  186.3205   64.9552 H       623      M_A    0.0000
   4367 H         117.8377  187.0524   66.9662 H       623      M_A    0.0000
   4368 H         119.3993  186.4847   66.3117 H       623      M_A    0.0000
   4369 C         118.5794  185.8661   68.9342 C.3     624      M_A    0.0000
   4370 C         119.9817  186.3826   69.2313 C.3     624      M_A    0.0000
   4371 O         120.7034  185.3703   69.9314 O.3     624      M_A    0.0000
   4372 H         118.2596  185.1709   69.7187 H       624      M_A    0.0000
   4373 H         117.8802  186.7099   68.9320 H       624      M_A    0.0000
   4374 H         119.8878  187.2792   69.8601 H       624      M_A    0.0000
   4375 H         120.5123  186.6532   68.3086 H       624      M_A    0.0000
   4376 C         122.0942  185.5922   69.8363 C.3     625      M_A    0.0000
   4377 C         122.8698  184.3256   69.4962 C.3     625      M_A    0.0000
   4378 O         124.1075  184.3426   70.2058 O.3     625      M_A    0.0000
   4379 H         122.4525  186.0108   70.7836 H       625      M_A    0.0000
   4380 H         122.2696  186.3400   69.0546 H       625      M_A    0.0000
   4381 H         123.0582  184.3225   68.4134 H       625      M_A    0.0000
   4382 H         122.2987  183.4246   69.7573 H       625      M_A    0.0000
   4383 C         123.9110  184.0000   71.5610 C.3     626      M_A    0.0000
   4384 C         125.2209  183.8316   72.3208 C.3     626      M_A    0.0000
   4385 O         125.6939  182.4994   72.1276 O.3     626      M_A    0.0000
   4386 H         123.3240  183.0759   71.6120 H       626      M_A    0.0000
   4387 H         123.3226  184.7944   72.0338 H       626      M_A    0.0000
   4388 H         125.0207  184.0076   73.3870 H       626      M_A    0.0000
   4389 H         125.9764  184.5522   71.9803 H       626      M_A    0.0000
   4390 C         127.0827  182.4227   72.3685 C.3     627      M_A    0.0000
   4391 C         127.9055  183.1188   71.2916 C.3     627      M_A    0.0000
   4392 O         129.2087  182.5386   71.2649 O.3     627      M_A    0.0000
   4393 H         127.3725  181.3683   72.4418 H       627      M_A    0.0000
   4394 H         127.2893  182.8926   73.3367 H       627      M_A    0.0000
   4395 H         127.9746  184.1844   71.5520 H       627      M_A    0.0000
   4396 H         127.4325  183.0271   70.3047 H       627      M_A    0.0000
   4397 C         130.1975  183.5214   71.4866 C.3     628      M_A    0.0000
   4398 C         131.4460  183.3002   70.6418 C.3     628      M_A    0.0000
   4399 O         132.5156  184.0638   71.1974 O.3     628      M_A    0.0000
   4400 H         130.4587  183.5282   72.5510 H       628      M_A    0.0000
   4401 H         129.7691  184.5001   71.2429 H       628      M_A    0.0000
   4402 H         131.2308  183.6441   69.6203 H       628      M_A    0.0000
   4403 H         131.7215  182.2377   70.6055 H       628      M_A    0.0000
   4404 C         132.7424  185.2318   70.4379 C.3     629      M_A    0.0000
   4405 C         134.2046  185.6603   70.4407 C.3     629      M_A    0.0000
   4406 O         134.2663  187.0759   70.6084 O.3     629      M_A    0.0000
   4407 H         132.1124  186.0383   70.8301 H       629      M_A    0.0000
   4408 H         132.4287  185.0364   69.4062 H       629      M_A    0.0000
   4409 H         134.6437  185.3776   69.4736 H       629      M_A    0.0000
   4410 H         134.7661  185.1616   71.2420 H       629      M_A    0.0000
   4411 C         134.7190  187.6996   69.4258 C.3     630      M_A    0.0000
   4412 C         135.2185  189.1191   69.6640 C.3     630      M_A    0.0000
   4413 O         134.1828  190.0342   69.3092 O.3     630      M_A    0.0000
   4414 H         133.9042  187.7045   68.6929 H       630      M_A    0.0000
   4415 H         135.5356  187.0975   69.0115 H       630      M_A    0.0000
   4416 H         136.0979  189.2819   69.0252 H       630      M_A    0.0000
   4417 H         135.5111  189.2699   70.7117 H       630      M_A    0.0000
   4418 C         134.0285  191.0239   70.3038 C.3     631      M_A    0.0000
   4419 C         134.1595  192.4378   69.7516 C.3     631      M_A    0.0000
   4420 O         134.9332  193.2155   70.6639 O.3     631      M_A    0.0000
   4421 H         134.7729  190.8558   71.0903 H       631      M_A    0.0000
   4422 H         133.0363  190.9059   70.7540 H       631      M_A    0.0000
   4423 H         133.1498  192.8620   69.6597 H       631      M_A    0.0000
   4424 H         134.6335  192.4382   68.7609 H       631      M_A    0.0000
   4425 C         135.8105  194.0752   69.9682 C.3     632      M_A    0.0000
   4426 C         136.8617  194.7021   70.8755 C.3     632      M_A    0.0000
   4427 O         137.0960  196.0425   70.4463 O.3     632      M_A    0.0000
   4428 H         135.2232  194.8578   69.4746 H       632      M_A    0.0000
   4429 H         136.3127  193.4935   69.1869 H       632      M_A    0.0000
   4430 H         137.7848  194.1124   70.7846 H       632      M_A    0.0000
   4431 H         136.5402  194.6940   71.9255 H       632      M_A    0.0000
   4432 C         137.4688  196.8580   71.5365 C.3     633      M_A    0.0000
   4433 C         138.0193  198.2095   71.0985 C.3     633      M_A    0.0000
   4434 O         139.0988  198.5652   71.9611 O.3     633      M_A    0.0000
   4435 H         138.2127  196.3255   72.1400 H       633      M_A    0.0000
   4436 H         136.5844  197.0179   72.1635 H       633      M_A    0.0000
   4437 H         137.2114  198.9497   71.1839 H       633      M_A    0.0000
   4438 H         138.3639  198.1824   70.0561 H       633      M_A    0.0000
   4439 C         139.9437  199.5102   71.3400 C.3     634      M_A    0.0000
   4440 C         139.9014  200.8730   72.0200 C.3     634      M_A    0.0000
   4441 O         140.0769  201.8844   71.0290 O.3     634      M_A    0.0000
   4442 H         139.6562  199.6052   70.2867 H       634      M_A    0.0000
   4443 H         140.9696  199.1261   71.3716 H       634      M_A    0.0000
   4444 H         140.7231  200.9152   72.7487 H       634      M_A    0.0000
   4445 H         138.9519  201.0264   72.5501 H       634      M_A    0.0000
   4446 C         140.3819  203.1248   71.6300 C.3     635      M_A    0.0000
   4447 C         139.8974  204.3118   70.8069 C.3     635      M_A    0.0000
   4448 O         140.8186  205.3890   70.9710 O.3     635      M_A    0.0000
   4449 H         141.4653  203.1886   71.7822 H       635      M_A    0.0000
   4450 H         139.9050  203.1546   72.6162 H       635      M_A    0.0000
   4451 H         138.9070  204.6048   71.1827 H       635      M_A    0.0000
   4452 H         139.8082  204.0517   69.7436 H       635      M_A    0.0000
   4453 C         140.8709  206.1833   69.8053 C.3     636      M_A    0.0000
   4454 C         141.8100  207.3747   69.9475 C.3     636      M_A    0.0000
   4455 O         141.0299  208.5477   70.1742 O.3     636      M_A    0.0000
   4456 H         139.8587  206.5277   69.5647 H       636      M_A    0.0000
   4457 H         141.2141  205.5540   68.9765 H       636      M_A    0.0000
   4458 H         142.3756  207.4757   69.0105 H       636      M_A    0.0000
   4459 H         142.5191  207.2290   70.7733 H       636      M_A    0.0000
   4460 C         141.4964  209.2461   71.3088 C.3     637      M_A    0.0000
   4461 C         142.3506  210.4543   70.9454 C.3     637      M_A    0.0000
   4462 O         143.5233  210.4466   71.7580 O.3     637      M_A    0.0000
   4463 H         142.0681  208.5562   71.9400 H       637      M_A    0.0000
   4464 H         140.6276  209.5825   71.8858 H       637      M_A    0.0000
   4465 H         141.7613  211.3601   71.1457 H       637      M_A    0.0000
   4466 H         142.6289  210.4425   69.8831 H       637      M_A    0.0000
   4467 C         143.2149  210.0462   73.0760 C.3     638      M_A    0.0000
   4468 C         144.3591  210.2985   74.0501 C.3     638      M_A    0.0000
   4469 O         145.1704  209.1266   74.1163 O.3     638      M_A    0.0000
   4470 H         142.9514  208.9824   73.0713 H       638      M_A    0.0000
   4471 H         142.3329  210.6060   73.4072 H       638      M_A    0.0000
   4472 H         143.9249  210.5104   75.0373 H       638      M_A    0.0000
   4473 H         144.9662  211.1594   73.7398 H       638      M_A    0.0000
   4474 C         146.0771  209.2074   75.1952 C.3     639      M_A    0.0000
   4475 C         147.3491  209.9664   74.8386 C.3     639      M_A    0.0000
   4476 O         148.4375  209.4049   75.5707 O.3     639      M_A    0.0000
   4477 H         146.3241  208.1928   75.5280 H       639      M_A    0.0000
   4478 H         145.5769  209.7175   76.0262 H       639      M_A    0.0000
   4479 H         147.2085  211.0186   75.1236 H       639      M_A    0.0000
   4480 H         147.5555  209.9176   73.7611 H       639      M_A    0.0000
   4481 C         149.3038  210.4187   76.0335 C.3     640      M_A    0.0000
   4482 C         150.7488  209.9497   76.1492 C.3     640      M_A    0.0000
   4483 O         151.4136  210.7517   77.1242 O.3     640      M_A    0.0000
   4484 H         148.9446  210.7764   77.0052 H       640      M_A    0.0000
   4485 H         149.2552  211.2585   75.3312 H       640      M_A    0.0000
   4486 H         151.2276  210.0780   75.1682 H       640      M_A    0.0000
   4487 H         150.8041  208.8900   76.4325 H       640      M_A    0.0000
   4488 C         152.1580  211.7778   76.5033 C.3     641      M_A    0.0000
   4489 C         153.1414  212.4486   77.4543 C.3     641      M_A    0.0000
   4490 O         152.8102  213.8329   77.5535 O.3     641      M_A    0.0000
   4491 H         151.4647  212.5205   76.0924 H       641      M_A    0.0000
   4492 H         152.7123  211.3405   75.6652 H       641      M_A    0.0000
   4493 H         154.1513  212.3336   77.0362 H       641      M_A    0.0000
   4494 H         153.1166  211.9837   78.4490 H       641      M_A    0.0000
   4495 C         153.1817  214.3462   78.8149 C.3     642      M_A    0.0000
   4496 C         153.6356  215.7991   78.7479 C.3     642      M_A    0.0000
   4497 O         154.8009  215.9522   79.5569 O.3     642      M_A    0.0000
   4498 H         153.9793  213.7208   79.2317 H       642      M_A    0.0000
   4499 H         152.3168  214.2718   79.4837 H       642      M_A    0.0000
   4500 H         152.8228  216.4277   79.1382 H       642      M_A    0.0000
   4501 H         153.8518  216.1035   77.7151 H       642      M_A    0.0000
   4502 C         155.4690  217.1565   79.2473 C.3     643      M_A    0.0000
   4503 C         156.3199  217.6703   80.4021 C.3     643      M_A    0.0000
   4504 O         156.7573  218.9932   80.0949 O.3     643      M_A    0.0000
   4505 H         154.7270  217.9106   78.9610 H       643      M_A    0.0000
   4506 H         156.1138  216.9778   78.3794 H       643      M_A    0.0000
   4507 H         157.1873  217.0037   80.5083 H       643      M_A    0.0000
   4508 H         155.7571  217.6696   81.3451 H       643      M_A    0.0000
   4509 C         155.7020  219.9173   80.2523 C.3     644      M_A    0.0000
   4510 C         156.0224  221.2827   79.6568 C.3     644      M_A    0.0000
   4511 O         156.7440  222.0454   80.6230 O.3     644      M_A    0.0000
   4512 H         155.4727  220.0158   81.3195 H       644      M_A    0.0000
   4513 H         154.8130  219.5105   79.7571 H       644      M_A    0.0000
   4514 H         155.0723  221.7814   79.4188 H       644      M_A    0.0000
   4515 H         156.6118  221.1888   78.7350 H       644      M_A    0.0000
   4516 C         157.5278  221.2026   81.4403 C.3     645      M_A    0.0000
   4517 C         158.9908  221.6256   81.4886 C.3     645      M_A    0.0000
   4518 O         159.6757  221.0308   80.3872 O.3     645      M_A    0.0000
   4519 H         157.4447  220.1738   81.0721 H       645      M_A    0.0000
   4520 H         157.1144  221.2274   82.4548 H       645      M_A    0.0000
   4521 H         159.4180  221.2650   82.4349 H       645      M_A    0.0000
   4522 H         159.0929  222.7183   81.4494 H       645      M_A    0.0000
   4523 C         159.0389  221.3541   79.1696 C.3     646      M_A    0.0000
   4524 C         159.9367  222.1489   78.2296 C.3     646      M_A    0.0000
   4525 O         159.7031  223.5405   78.4415 O.3     646      M_A    0.0000
   4526 H         158.1252  221.9193   79.3861 H       646      M_A    0.0000
   4527 H         158.7438  220.4201   78.6783 H       646      M_A    0.0000
   4528 H         159.6737  221.8773   77.1976 H       646      M_A    0.0000
   4529 H         160.9968  221.9157   78.3963 H       646      M_A    0.0000
   4530 C         160.6778  224.3171   77.7787 C.3     647      M_A    0.0000
   4531 C         161.2667  225.4053   78.6677 C.3     647      M_A    0.0000
   4532 O         160.5487  226.6177   78.4434 O.3     647      M_A    0.0000
   4533 H         160.2283  224.7631   76.8842 H       647      M_A    0.0000
   4534 H         161.4823  223.6497   77.4493 H       647      M_A    0.0000
   4535 H         162.3219  225.5374   78.3901 H       647      M_A    0.0000
   4536 H         161.2135  225.1274   79.7289 H       647      M_A    0.0000
   4537 C         159.8631  227.0155   79.6114 C.3     648      M_A    0.0000
   4538 C         158.9942  228.2478   79.3922 C.3     648      M_A    0.0000
   4539 O         159.4801  229.3033   80.2202 O.3     648      M_A    0.0000
   4540 H         160.5947  227.2062   80.4049 H       648      M_A    0.0000
   4541 H         159.2286  226.1834   79.9369 H       648      M_A    0.0000
   4542 H         157.9637  227.9922   79.6763 H       648      M_A    0.0000
   4543 H         159.0024  228.5610   78.3397 H       648      M_A    0.0000
   4544 C         158.7920  230.5061   79.9511 C.3     649      M_A    0.0000
   4545 C         159.6922  231.7318   80.0440 C.3     649      M_A    0.0000
   4546 O         159.0461  232.7139   80.8526 O.3     649      M_A    0.0000
   4547 H         157.9539  230.5999   80.6511 H       649      M_A    0.0000
   4548 H         158.3752  230.4439   78.9395 H       649      M_A    0.0000
   4549 H         159.8414  232.1221   79.0274 H       649      M_A    0.0000
   4550 H         160.6715  231.4777   80.4712 H       649      M_A    0.0000
   4551 C         159.7368  233.9435   80.7925 C.3     650      M_A    0.0000
   4552 C         160.4012  234.3098   82.1137 C.3     650      M_A    0.0000
   4553 O         160.8052  235.6771   82.0592 O.3     650      M_A    0.0000
   4554 H         159.0355  234.7303   80.4922 H       650      M_A    0.0000
   4555 H         160.5049  233.8677   80.0144 H       650      M_A    0.0000
   4556 H         161.2809  233.6636   82.2427 H       650      M_A    0.0000
   4557 H         159.7207  234.1520   82.9611 H       650      M_A    0.0000
   4558 C         159.6913  236.5329   82.1992 C.3     651      M_A    0.0000
   4559 C         159.8509  237.8367   81.4272 C.3     651      M_A    0.0000
   4560 O         160.5383  238.7760   82.2525 O.3     651      M_A    0.0000
   4561 H         159.5358  236.7416   83.2638 H       651      M_A    0.0000
   4562 H         158.8047  236.0048   81.8306 H       651      M_A    0.0000
   4563 H         158.8473  238.2138   81.1853 H       651      M_A    0.0000
   4564 H         160.4045  237.6824   80.4913 H       651      M_A    0.0000
   4565 C         160.1674  240.0971   81.9212 C.3     652      M_A    0.0000
   4566 C         161.1917  240.7895   81.0309 C.3     652      M_A    0.0000
   4567 O         161.8835  241.7682   81.8051 O.3     652      M_A    0.0000
   4568 H         160.0240  240.6680   82.8456 H       652      M_A    0.0000
   4569 H         159.2046  240.0623   81.3989 H       652      M_A    0.0000
   4570 H         160.6521  241.2763   80.2064 H       652      M_A    0.0000
   4571 H         161.9061  240.0702   80.6085 H       652      M_A    0.0000
   4572 C         162.9875  242.2812   81.0904 C.3     653      M_A    0.0000
   4573 C         163.7212  243.3791   81.8506 C.3     653      M_A    0.0000
   4574 O         164.0557  244.4229   80.9372 O.3     653      M_A    0.0000
   4575 H         162.6390  242.6605   80.1231 H       653      M_A    0.0000
   4576 H         163.6820  241.4565   80.8938 H       653      M_A    0.0000
   4577 H         164.6370  242.9448   82.2757 H       653      M_A    0.0000
   4578 H         163.1072  243.7778   82.6692 H       653      M_A    0.0000
   4579 C         165.0147  245.2917   81.5012 C.3     654      M_A    0.0000
   4580 C         164.4299  246.6467   81.8797 C.3     654      M_A    0.0000
   4581 O         165.4165  247.6514   81.6491 O.3     654      M_A    0.0000
   4582 H         165.8379  245.4217   80.7895 H       654      M_A    0.0000
   4583 H         165.4235  244.8148   82.3992 H       654      M_A    0.0000
   4584 H         164.1664  246.6176   82.9464 H       654      M_A    0.0000
   4585 H         163.5246  246.8682   81.2989 H       654      M_A    0.0000
   4586 C         164.8080  248.8892   81.3490 C.3     655      M_A    0.0000
   4587 C         165.3395  250.0294   82.2086 C.3     655      M_A    0.0000
   4588 O         164.2332  250.7755   82.7140 O.3     655      M_A    0.0000
   4589 H         163.7241  248.7926   81.4788 H       655      M_A    0.0000
   4590 H         164.9977  249.1178   80.2941 H       655      M_A    0.0000
   4591 H         165.9658  250.6712   81.5732 H       655      M_A    0.0000
   4592 H         165.9504  249.6526   83.0399 H       655      M_A    0.0000
   4593 C         164.5811  252.1332   82.8811 C.3     656      M_A    0.0000
   4594 C         165.9801  252.3151   83.4565 C.3     656      M_A    0.0000
   4595 O         165.8811  253.0467   84.6775 O.3     656      M_A    0.0000
   4596 H         163.8406  252.6119   83.5318 H       656      M_A    0.0000
   4597 H         164.5302  252.6233   81.9022 H       656      M_A    0.0000
   4598 H         166.5769  252.8811   82.7274 H       656      M_A    0.0000
   4599 H         166.4679  251.3476   83.6361 H       656      M_A    0.0000
   4600 C         166.8941  252.6537   85.5787 C.3     657      M_A    0.0000
   4601 C         167.9867  253.7048   85.7298 C.3     657      M_A    0.0000
   4602 O         169.2544  253.0501   85.7303 O.3     657      M_A    0.0000
   4603 H         167.3265  251.7069   85.2357 H       657      M_A    0.0000
   4604 H         166.4326  252.4739   86.5562 H       657      M_A    0.0000
   4605 H         167.8312  254.2218   86.6872 H       657      M_A    0.0000
   4606 H         167.9454  254.4443   84.9190 H       657      M_A    0.0000
   4607 C         170.3039  253.9940   85.7116 C.3     658      M_A    0.0000
   4608 C         171.6546  253.3782   86.0547 C.3     658      M_A    0.0000
   4609 O         172.5899  254.4295   86.2914 O.3     658      M_A    0.0000
   4610 H         170.0679  254.8011   86.4144 H       658      M_A    0.0000
   4611 H         170.3543  254.4310   84.7079 H       658      M_A    0.0000
   4612 H         171.9801  252.7726   85.1972 H       658      M_A    0.0000
   4613 H         171.5859  252.7298   86.9384 H       658      M_A    0.0000
   4614 C         172.0878  255.6606   85.8173 C.3     659      M_A    0.0000
   4615 C         173.1384  256.7642   85.8201 C.3     659      M_A    0.0000
   4616 O         172.6861  257.8243   86.6612 O.3     659      M_A    0.0000
   4617 H         171.2302  255.9549   86.4329 H       659      M_A    0.0000
   4618 H         171.7271  255.5124   84.7932 H       659      M_A    0.0000
   4619 H         173.2537  257.1266   84.7890 H       659      M_A    0.0000
   4620 H         174.1091  256.3915   86.1735 H       659      M_A    0.0000
   4621 C         173.5303  258.9495   86.5440 C.3     660      M_A    0.0000
   4622 C         174.1164  259.3865   87.8808 C.3     660      M_A    0.0000
   4623 O         174.5460  260.7427   87.7706 O.3     660      M_A    0.0000
   4624 H         172.9641  259.7726   86.0934 H       660      M_A    0.0000
   4625 H         174.3483  258.6949   85.8606 H       660      M_A    0.0000
   4626 H         174.9751  258.7380   88.1040 H       660      M_A    0.0000
   4627 H         173.3813  259.2893   88.6909 H       660      M_A    0.0000
   4628 C         174.8666  261.2696   89.0404 C.3     661      M_A    0.0000
   4629 C         175.2219  262.7503   88.9897 C.3     661      M_A    0.0000
   4630 O         176.4373  262.9541   89.7088 O.3     661      M_A    0.0000
   4631 H         175.6997  260.6961   89.4626 H       661      M_A    0.0000
   4632 H         174.0007  261.1315   89.6977 H       661      M_A    0.0000
   4633 H         174.4059  263.3123   89.4654 H       661      M_A    0.0000
   4634 H         175.3340  263.0998   87.9546 H       661      M_A    0.0000
   4635 C         176.2485  262.7139   91.0869 C.3     662      M_A    0.0000
   4636 C         176.5608  263.9340   91.9445 C.3     662      M_A    0.0000
   4637 O         177.9568  263.9412   92.2389 O.3     662      M_A    0.0000
   4638 H         176.8779  261.8693   91.3895 H       662      M_A    0.0000
   4639 H         175.2036  262.4235   91.2445 H       662      M_A    0.0000
   4640 H         175.9816  263.8528   92.8751 H       662      M_A    0.0000
   4641 H         176.2790  264.8646   91.4339 H       662      M_A    0.0000
   4642 C         178.2674  264.9634   93.1614 C.3     663      M_A    0.0000
   4643 C         179.1176  266.0696   92.5490 C.3     663      M_A    0.0000
   4644 O         180.4188  266.0226   93.1324 O.3     663      M_A    0.0000
   4645 H         178.7854  264.5213   94.0201 H       663      M_A    0.0000
   4646 H         177.3277  265.3941   93.5254 H       663      M_A    0.0000
   4647 H         178.6388  267.0323   92.7770 H       663      M_A    0.0000
   4648 H         179.1900  265.9614   91.4586 H       663      M_A    0.0000
   4649 C         180.9783  267.3164   93.2100 C.3     664      M_A    0.0000
   4650 C         181.9303  267.6152   92.0586 C.3     664      M_A    0.0000
   4651 O         182.8885  268.5780   92.4953 O.3     664      M_A    0.0000
   4652 H         181.5006  267.4203   94.1678 H       664      M_A    0.0000
   4653 H         180.1601  268.0453   93.1964 H       664      M_A    0.0000
   4654 H         181.3400  268.0241   91.2266 H       664      M_A    0.0000
   4655 H         182.4407  266.7055   91.7150 H       664      M_A    0.0000
   4656 C         183.5726  269.1366   91.3941 C.3     665      M_A    0.0000
   4657 C         184.3900  270.3657   91.7717 C.3     665      M_A    0.0000
   4658 O         183.5833  271.5274   91.5831 O.3     665      M_A    0.0000
   4659 H         182.8441  269.3926   90.6164 H       665      M_A    0.0000
   4660 H         184.2430  268.3731   90.9835 H       665      M_A    0.0000
   4661 H         185.2673  270.4069   91.1109 H       665      M_A    0.0000
   4662 H         184.7352  270.3123   92.8129 H       665      M_A    0.0000
   4663 C         182.7560  271.7484   92.7053 C.3     666      M_A    0.0000
   4664 C         182.0741  273.1105   92.6738 C.3     666      M_A    0.0000
   4665 O         182.6039  273.9119   93.7287 O.3     666      M_A    0.0000
   4666 H         183.3584  271.6492   93.6154 H       666      M_A    0.0000
   4667 H         181.9900  270.9649   92.7263 H       666      M_A    0.0000
   4668 H         180.9967  272.9551   92.8256 H       666      M_A    0.0000
   4669 H         182.2254  273.6115   91.7083 H       666      M_A    0.0000
   4670 C         181.7095  274.9514   94.0636 C.3     667      M_A    0.0000
   4671 C         182.3624  276.3272   94.0147 C.3     667      M_A    0.0000
   4672 O         181.7243  277.1707   94.9724 O.3     667      M_A    0.0000
   4673 H         181.3036  274.7620   95.0639 H       667      M_A    0.0000
   4674 H         180.8738  274.9264   93.3552 H       667      M_A    0.0000
   4675 H         182.2220  276.7345   93.0036 H       667      M_A    0.0000
   4676 H         183.4388  276.2671   94.2242 H       667      M_A    0.0000
   4677 C         182.6802  277.9092   95.7028 C.3     668      M_A    0.0000
   4678 C         182.2439  278.1786   97.1376 C.3     668      M_A    0.0000
   4679 O         183.1009  279.1725   97.6974 O.3     668      M_A    0.0000
   4680 H         182.8712  278.8549   95.1829 H       668      M_A    0.0000
   4681 H         183.6171  277.3408   95.7143 H       668      M_A    0.0000
   4682 H         182.3374  277.2409   97.7033 H       668      M_A    0.0000
   4683 H         181.1993  278.5143   97.1818 H       668      M_A    0.0000
   4684 C         182.3615  280.3141   98.0753 C.3     669      M_A    0.0000
   4685 C         183.2269  281.5625   98.1932 C.3     669      M_A    0.0000
   4686 O         183.9454  281.7381   96.9731 O.3     669      M_A    0.0000
   4687 H         181.8591  280.1122   99.0281 H       669      M_A    0.0000
   4688 H         181.5861  280.4860   97.3202 H       669      M_A    0.0000
   4689 H         183.9301  281.4117   99.0243 H       669      M_A    0.0000
   4690 H         182.6187  282.4526   98.4032 H       669      M_A    0.0000
   4691 C         184.0465  283.1075   96.6457 C.3     670      M_A    0.0000
   4692 C         185.3806  283.4606   96.0000 C.3     670      M_A    0.0000
   4693 O         186.0407  284.4291   96.8137 O.3     670      M_A    0.0000
   4694 H         183.8985  283.7016   97.5547 H       670      M_A    0.0000
   4695 H         183.2359  283.3548   95.9510 H       670      M_A    0.0000
   4696 H         185.1761  283.8825   95.0059 H       670      M_A    0.0000
   4697 H         186.0157  282.5724   95.8822 H       670      M_A    0.0000
   4698 C         185.4162  285.6896   96.6957 C.3     671      M_A    0.0000
   4699 C         185.7332  286.3814   95.3757 C.3     671      M_A    0.0000
   4700 O         186.6690  287.4299   95.6218 O.3     671      M_A    0.0000
   4701 H         185.7277  286.3201   97.5362 H       671      M_A    0.0000
   4702 H         184.3328  285.5442   96.7725 H       671      M_A    0.0000
   4703 H         184.7979  286.7993   94.9775 H       671      M_A    0.0000
   4704 H         186.1441  285.6749   94.6422 H       671      M_A    0.0000
   4705 C         186.0152  288.6797   95.6782 C.3     672      M_A    0.0000
   4706 C         186.8991  289.7803   96.2519 C.3     672      M_A    0.0000
   4707 O         186.3745  290.1745   97.5189 O.3     672      M_A    0.0000
   4708 H         185.1039  288.5768   96.2781 H       672      M_A    0.0000
   4709 H         185.7147  288.9558   94.6611 H       672      M_A    0.0000
   4710 H         186.8781  290.6307   95.5561 H       672      M_A    0.0000
   4711 H         187.9378  289.4417   96.3636 H       672      M_A    0.0000
   4712 C         184.9817  289.9515   97.5738 C.3     673      M_A    0.0000
   4713 C         184.2383  290.5843   96.4040 C.3     673      M_A    0.0000
   4714 O         182.8859  290.8182   96.7939 O.3     673      M_A    0.0000
   4715 H         184.5965  290.3438   98.5219 H       673      M_A    0.0000
   4716 H         184.8069  288.8696   97.5658 H       673      M_A    0.0000
   4717 H         184.2691  289.8803   95.5606 H       673      M_A    0.0000
   4718 H         184.7089  291.5269   96.0937 H       673      M_A    0.0000
   4719 C         182.7514  292.0898   97.3920 C.3     674      M_A    0.0000
   4720 C         181.3359  292.6432   97.2847 C.3     674      M_A    0.0000
   4721 O         181.4023  294.0683   97.2621 O.3     674      M_A    0.0000
   4722 H         183.4625  292.7794   96.9232 H       674      M_A    0.0000
   4723 H         183.0220  292.0014   98.4502 H       674      M_A    0.0000
   4724 H         180.7719  292.3079   98.1664 H       674      M_A    0.0000
   4725 H         180.8300  292.2757   96.3818 H       674      M_A    0.0000
   4726 C         182.5943  294.5223   97.8668 C.3     675      M_A    0.0000
   4727 C         182.9685  293.7178   99.1054 C.3     675      M_A    0.0000
   4728 O         184.3594  293.4055   99.0452 O.3     675      M_A    0.0000
   4729 H         182.4801  295.5812   98.1252 H       675      M_A    0.0000
   4730 H         183.4031  294.4445   97.1316 H       675      M_A    0.0000
   4731 H         182.3758  292.7923   99.1018 H       675      M_A    0.0000
   4732 H         182.7473  294.2744  100.0260 H       675      M_A    0.0000
   4733 C         184.7564  293.1487   97.7151 C.3     676      M_A    0.0000
   4734 C         185.9905  292.2591   97.6314 C.3     676      M_A    0.0000
   4735 O         187.1524  293.0728   97.7846 O.3     676      M_A    0.0000
   4736 H         184.9446  294.1031   97.2104 H       676      M_A    0.0000
   4737 H         183.9248  292.6570   97.1978 H       676      M_A    0.0000
   4738 H         185.9968  291.7784   96.6430 H       676      M_A    0.0000
   4739 H         185.9737  291.4779   98.4031 H       676      M_A    0.0000
   4740 C         187.0827  294.2058   96.9454 C.3     677      M_A    0.0000
   4741 C         187.8664  294.0277   95.6509 C.3     677      M_A    0.0000
   4742 O         188.8208  292.9831   95.8338 O.3     677      M_A    0.0000
   4743 H         187.4553  295.0779   97.4948 H       677      M_A    0.0000
   4744 H         186.0297  294.3896   96.7040 H       677      M_A    0.0000
   4745 H         188.3824  294.9734   95.4329 H       677      M_A    0.0000
   4746 H         187.2015  293.7871   94.8106 H       677      M_A    0.0000
   4747 C         189.6542  292.8641   94.7007 C.3     678      M_A    0.0000
   4748 C         189.5269  291.5084   94.0171 C.3     678      M_A    0.0000
   4749 O         190.6279  290.6914   94.4123 O.3     678      M_A    0.0000
   4750 H         190.6929  293.0373   95.0042 H       678      M_A    0.0000
   4751 H         189.3799  293.6510   93.9890 H       678      M_A    0.0000
   4752 H         189.5520  291.6716   92.9305 H       678      M_A    0.0000
   4753 H         188.5804  291.0160   94.2778 H       678      M_A    0.0000
   4754 C         190.1902  289.3924   94.7494 C.3     679      M_A    0.0000
   4755 C         190.4049  289.0632   96.2214 C.3     679      M_A    0.0000
   4756 O         190.9362  287.7429   96.3223 O.3     679      M_A    0.0000
   4757 H         190.7168  288.6660   94.1199 H       679      M_A    0.0000
   4758 H         189.1215  289.3199   94.5185 H       679      M_A    0.0000
   4759 H         189.4305  289.1151   96.7272 H       679      M_A    0.0000
   4760 H         191.0873  289.7807   96.6965 H       679      M_A    0.0000
   4761 C         190.8559  287.0761   95.0807 C.3     680      M_A    0.0000
   4762 C         189.4280  286.6971   94.7081 C.3     680      M_A    0.0000
   4763 O         189.4675  285.7946   93.6037 O.3     680      M_A    0.0000
   4764 H         191.4865  286.1805   95.1174 H       680      M_A    0.0000
   4765 H         191.2635  287.7385   94.3087 H       680      M_A    0.0000
   4766 H         188.8957  287.6154   94.4232 H       680      M_A    0.0000
   4767 H         188.9033  286.2336   95.5543 H       680      M_A    0.0000
   4768 C         189.2106  286.4746   92.3937 C.3     681      M_A    0.0000
   4769 C         188.7390  285.5428   91.2843 C.3     681      M_A    0.0000
   4770 O         189.5475  285.7607   90.1291 O.3     681      M_A    0.0000
   4771 H         190.1199  287.0013   92.0825 H       681      M_A    0.0000
   4772 H         188.4373  287.2281   92.5811 H       681      M_A    0.0000
   4773 H         187.6907  285.7849   91.0595 H       681      M_A    0.0000
   4774 H         188.7994  284.4906   91.5928 H       681      M_A    0.0000
   4775 C         189.1944  286.9705   89.4933 C.3     682      M_A    0.0000
   4776 C         187.8242  286.9078   88.8299 C.3     682      M_A    0.0000
   4777 O         187.6740  288.0452   87.9816 O.3     682      M_A    0.0000
   4778 H         189.9616  287.2186   88.7511 H       682      M_A    0.0000
   4779 H         189.1910  287.7660   90.2471 H       682      M_A    0.0000
   4780 H         187.0619  286.9270   89.6214 H       682      M_A    0.0000
   4781 H         187.7038  285.9850   88.2468 H       682      M_A    0.0000
   4782 C         186.7127  288.9359   88.5060 C.3     683      M_A    0.0000
   4783 C         185.4221  288.2355   88.9124 C.3     683      M_A    0.0000
   4784 O         184.3363  288.8283   88.2014 O.3     683      M_A    0.0000
   4785 H         186.5024  289.7107   87.7600 H       683      M_A    0.0000
   4786 H         187.1446  289.4284   89.3845 H       683      M_A    0.0000
   4787 H         185.2842  288.3769   89.9935 H       683      M_A    0.0000
   4788 H         185.4674  287.1588   88.7006 H       683      M_A    0.0000
   4789 C         183.1953  287.9986   88.2500 C.3     684      M_A    0.0000
   4790 C         181.9115  288.7788   88.5038 C.3     684      M_A    0.0000
   4791 O         181.2195  288.1779   89.5974 O.3     684      M_A    0.0000
   4792 H         183.3385  287.2436   89.0314 H       684      M_A    0.0000
   4793 H         183.1117  287.4738   87.2916 H       684      M_A    0.0000
   4794 H         181.2955  288.7251   87.5951 H       684      M_A    0.0000
   4795 H         182.1215  289.8337   88.7254 H       684      M_A    0.0000
   4796 C         181.9211  288.3822   90.8051 C.3     685      M_A    0.0000
   4797 C         181.2308  287.7400   92.0019 C.3     685      M_A    0.0000
   4798 O         180.0129  288.4384   92.2568 O.3     685      M_A    0.0000
   4799 H         182.0375  289.4594   90.9702 H       685      M_A    0.0000
   4800 H         182.9232  287.9521   90.6966 H       685      M_A    0.0000
   4801 H         181.9014  287.8269   92.8684 H       685      M_A    0.0000
   4802 H         181.0240  286.6766   91.8215 H       685      M_A    0.0000
   4803 C         179.3053  288.6629   91.0562 C.3     686      M_A    0.0000
   4804 C         177.9696  287.9310   91.0154 C.3     686      M_A    0.0000
   4805 O         178.1447  286.6977   90.3195 O.3     686      M_A    0.0000
   4806 H         179.9313  288.3524   90.2119 H       686      M_A    0.0000
   4807 H         179.1266  289.7397   90.9595 H       686      M_A    0.0000
   4808 H         177.2503  288.5656   90.4789 H       686      M_A    0.0000
   4809 H         177.5863  287.7412   92.0269 H       686      M_A    0.0000
   4810 C         177.2534  285.7180   90.8078 C.3     687      M_A    0.0000
   4811 C         177.8432  284.3138   90.7666 C.3     687      M_A    0.0000
   4812 O         177.0425  283.5062   89.9049 O.3     687      M_A    0.0000
   4813 H         176.3284  285.7558   90.2212 H       687      M_A    0.0000
   4814 H         177.0008  285.9700   91.8440 H       687      M_A    0.0000
   4815 H         177.8238  283.9067   91.7873 H       687      M_A    0.0000
   4816 H         178.8825  284.3266   90.4119 H       687      M_A    0.0000
   4817 C         177.2548  282.1353   90.1657 C.3     688      M_A    0.0000
   4818 C         177.6953  281.3629   88.9285 C.3     688      M_A    0.0000
   4819 O         176.8566  280.2181   88.7810 O.3     688      M_A    0.0000
   4820 H         176.3323  281.7040   90.5708 H       688      M_A    0.0000
   4821 H         178.0290  282.0486   90.9363 H       688      M_A    0.0000
   4822 H         178.7376  281.0476   89.0776 H       688      M_A    0.0000
   4823 H         177.6417  281.9874   88.0267 H       688      M_A    0.0000
   4824 C         177.5503  279.1703   88.1379 C.3     689      M_A    0.0000
   4825 C         177.0342  277.7928   88.5349 C.3     689      M_A    0.0000
   4826 O         177.7852  276.8031   87.8333 O.3     689      M_A    0.0000
   4827 H         178.6176  279.2550   88.3721 H       689      M_A    0.0000
   4828 H         177.4362  279.2970   87.0554 H       689      M_A    0.0000
   4829 H         175.9745  277.7315   88.2500 H       689      M_A    0.0000
   4830 H         177.1179  277.6310   89.6179 H       689      M_A    0.0000
   4831 C         177.1336  275.5519   87.8853 C.3     690      M_A    0.0000
   4832 C         177.9319  274.5048   88.6519 C.3     690      M_A    0.0000
   4833 O         177.9841  273.3096   87.8743 O.3     690      M_A    0.0000
   4834 H         176.9444  275.2074   86.8623 H       690      M_A    0.0000
   4835 H         176.1629  275.6908   88.3745 H       690      M_A    0.0000
   4836 H         177.4150  274.3116   89.6024 H       690      M_A    0.0000
   4837 H         178.9492  274.8571   88.8691 H       690      M_A    0.0000
   4838 C         178.3142  272.2012   88.6838 C.3     691      M_A    0.0000
   4839 C         178.2261  270.8782   87.9334 C.3     691      M_A    0.0000
   4840 O         177.0704  270.1729   88.3837 O.3     691      M_A    0.0000
   4841 H         177.6480  272.1863   89.5540 H       691      M_A    0.0000
   4842 H         179.3378  272.3372   89.0508 H       691      M_A    0.0000
   4843 H         179.1316  270.2978   88.1598 H       691      M_A    0.0000
   4844 H         178.1711  271.0366   86.8481 H       691      M_A    0.0000
   4845 C         177.2559  269.6993   89.7005 C.3     692      M_A    0.0000
   4846 C         178.2981  268.5911   89.7854 C.3     692      M_A    0.0000
   4847 O         178.2776  267.8495   88.5666 O.3     692      M_A    0.0000
   4848 H         176.2947  269.3435   90.0885 H       692      M_A    0.0000
   4849 H         177.5762  270.5405   90.3256 H       692      M_A    0.0000
   4850 H         178.0310  267.9368   90.6271 H       692      M_A    0.0000
   4851 H         179.3025  268.9990   89.9609 H       692      M_A    0.0000
   4852 C         176.9547  267.6917   88.1001 C.3     693      M_A    0.0000
   4853 C         176.7213  266.3380   87.4409 C.3     693      M_A    0.0000
   4854 O         176.9293  266.4715   86.0357 O.3     693      M_A    0.0000
   4855 H         176.7286  268.4989   87.3942 H       693      M_A    0.0000
   4856 H         176.2753  267.7961   88.9537 H       693      M_A    0.0000
   4857 H         175.6830  266.0375   87.6396 H       693      M_A    0.0000
   4858 H         177.3942  265.5725   87.8498 H       693      M_A    0.0000
   4859 C         177.1522  265.2104   85.4418 C.3     694      M_A    0.0000
   4860 C         178.4994  264.6103   85.8243 C.3     694      M_A    0.0000
   4861 O         178.6474  263.3569   85.1588 O.3     694      M_A    0.0000
   4862 H         177.0806  265.3132   84.3531 H       694      M_A    0.0000
   4863 H         176.3538  264.5331   85.7653 H       694      M_A    0.0000
   4864 H         178.5081  264.4603   86.9130 H       694      M_A    0.0000
   4865 H         179.3269  265.2799   85.5540 H       694      M_A    0.0000
   4866 C         179.5208  262.5109   85.8759 C.3     695      M_A    0.0000
   4867 C         180.1915  261.4699   84.9883 C.3     695      M_A    0.0000
   4868 O         180.4013  260.2835   85.7529 O.3     695      M_A    0.0000
   4869 H         178.9588  262.0176   86.6771 H       695      M_A    0.0000
   4870 H         180.2923  263.1323   86.3445 H       695      M_A    0.0000
   4871 H         181.1565  261.8773   84.6557 H       695      M_A    0.0000
   4872 H         179.5803  261.2444   84.1041 H       695      M_A    0.0000
   4873 C         179.1888  259.5830   85.9305 C.3     696      M_A    0.0000
   4874 C         179.4020  258.1015   86.2154 C.3     696      M_A    0.0000
   4875 O         179.3768  257.3896   84.9791 O.3     696      M_A    0.0000
   4876 H         178.5711  259.7095   85.0341 H       696      M_A    0.0000
   4877 H         178.6513  260.0355   86.7715 H       696      M_A    0.0000
   4878 H         178.5828  257.7582   86.8626 H       696      M_A    0.0000
   4879 H         180.3557  257.9264   86.7310 H       696      M_A    0.0000
   4880 C         180.5775  257.5881   84.2640 C.3     697      M_A    0.0000
   4881 C         181.3361  256.2901   84.0169 C.3     697      M_A    0.0000
   4882 O         182.4344  256.2219   84.9251 O.3     697      M_A    0.0000
   4883 H         181.2077  258.2936   84.8173 H       697      M_A    0.0000
   4884 H         180.3308  258.0476   83.3002 H       697      M_A    0.0000
   4885 H         181.7056  256.3038   82.9819 H       697      M_A    0.0000
   4886 H         180.6852  255.4152   84.1472 H       697      M_A    0.0000
   4887 C         183.0184  254.9369   84.9071 C.3     698      M_A    0.0000
   4888 C         184.4607  254.9396   85.3982 C.3     698      M_A    0.0000
   4889 O         185.1188  253.7795   84.8914 O.3     698      M_A    0.0000
   4890 H         182.9680  254.5384   83.8874 H       698      M_A    0.0000
   4891 H         182.4223  254.2802   85.5508 H       698      M_A    0.0000
   4892 H         184.4460  254.9127   86.4968 H       698      M_A    0.0000
   4893 H         184.9918  255.8449   85.0748 H       698      M_A    0.0000
   4894 C         184.2872  253.0908   83.9821 C.3     699      M_A    0.0000
   4895 C         184.1425  251.6125   84.3215 C.3     699      M_A    0.0000
   4896 O         185.0618  250.8678   83.5239 O.3     699      M_A    0.0000
   4897 H         184.6935  253.2076   82.9710 H       699      M_A    0.0000
   4898 H         183.2973  253.5605   83.9992 H       699      M_A    0.0000
   4899 H         183.1122  251.3092   84.0881 H       699      M_A    0.0000
   4900 H         184.3320  251.4261   85.3871 H       699      M_A    0.0000
   4901 C         185.2855  249.5903   84.0812 C.3     700      M_A    0.0000
   4902 C         184.7619  248.4641   83.1987 C.3     700      M_A    0.0000
   4903 O         184.6851  247.2708   83.9771 O.3     700      M_A    0.0000
   4904 H         184.8128  249.5462   85.0690 H       700      M_A    0.0000
   4905 H         186.3646  249.4620   84.2227 H       700      M_A    0.0000
   4906 H         185.4688  248.3256   82.3686 H       700      M_A    0.0000
   4907 H         183.7744  248.7069   82.7839 H       700      M_A    0.0000
   4908 C         185.8486  247.1095   84.7600 C.3     701      M_A    0.0000
   4909 C         186.6112  245.8340   84.4239 C.3     701      M_A    0.0000
   4910 O         186.0375  244.7516   85.1555 O.3     701      M_A    0.0000
   4911 H         185.5670  247.1125   85.8191 H       701      M_A    0.0000
   4912 H         186.5010  247.9728   84.5867 H       701      M_A    0.0000
   4913 H         187.6592  245.9754   84.7234 H       701      M_A    0.0000
   4914 H         186.5780  245.6199   83.3473 H       701      M_A    0.0000
   4915 C         184.9089  244.2365   84.4822 C.3     702      M_A    0.0000
   4916 C         185.0811  242.7779   84.0770 C.3     702      M_A    0.0000
   4917 O         184.7763  242.6495   82.6890 O.3     702      M_A    0.0000
   4918 H         184.7113  244.8528   83.5977 H       702      M_A    0.0000
   4919 H         184.0430  244.3231   85.1482 H       702      M_A    0.0000
   4920 H         184.3812  242.1746   84.6720 H       702      M_A    0.0000
   4921 H         186.1032  242.4265   84.2718 H       702      M_A    0.0000
   4922 C         184.2839  241.3578   82.4032 C.3     703      M_A    0.0000
   4923 C         185.3957  240.3338   82.2120 C.3     703      M_A    0.0000
   4924 O         184.9142  239.2874   81.3700 O.3     703      M_A    0.0000
   4925 H         183.6581  241.4072   81.5049 H       703      M_A    0.0000
   4926 H         183.6457  241.0420   83.2363 H       703      M_A    0.0000
   4927 H         185.6592  239.9294   83.1994 H       703      M_A    0.0000
   4928 H         186.2899  240.7920   81.7687 H       703      M_A    0.0000
   4929 C         185.7662  238.1638   81.4328 C.3     704      M_A    0.0000
   4930 C         185.6161  237.2440   80.2274 C.3     704      M_A    0.0000
   4931 O         186.0524  235.9357   80.5930 O.3     704      M_A    0.0000
   4932 H         185.5583  237.6118   82.3565 H       704      M_A    0.0000
   4933 H         186.8011  238.5205   81.4842 H       704      M_A    0.0000
   4934 H         186.2477  237.6376   79.4185 H       704      M_A    0.0000
   4935 H         184.5758  237.2096   79.8774 H       704      M_A    0.0000
   4936 C         185.7827  235.0124   79.5598 C.3     705      M_A    0.0000
   4937 C         186.0110  233.5681   79.9876 C.3     705      M_A    0.0000
   4938 O         186.7657  232.9046   78.9746 O.3     705      M_A    0.0000
   4939 H         186.4116  235.2535   78.6953 H       705      M_A    0.0000
   4940 H         184.7371  235.1344   79.2551 H       705      M_A    0.0000
   4941 H         185.0291  233.0871   80.0994 H       705      M_A    0.0000
   4942 H         186.5413  233.5142   80.9479 H       705      M_A    0.0000
   4943 C         187.2381  231.6582   79.4394 C.3     706      M_A    0.0000
   4944 C         187.7181  230.7537   78.3112 C.3     706      M_A    0.0000
   4945 O         187.4364  229.3990   78.6596 O.3     706      M_A    0.0000
   4946 H         186.4396  231.1645   80.0048 H       706      M_A    0.0000
   4947 H         188.0695  231.8421   80.1292 H       706      M_A    0.0000
   4948 H         188.8024  230.8947   78.2001 H       706      M_A    0.0000
   4949 H         187.2304  231.0068   77.3603 H       706      M_A    0.0000
   4950 C         188.1500  228.5105   77.8266 C.3     707      M_A    0.0000
   4951 C         187.3398  228.0593   76.6176 C.3     707      M_A    0.0000
   4952 O         186.2780  227.2185   77.0663 O.3     707      M_A    0.0000
   4953 H         188.4605  227.6415   78.4179 H       707      M_A    0.0000
   4954 H         189.0570  229.0186   77.4803 H       707      M_A    0.0000
   4955 H         188.0082  227.4962   75.9512 H       707      M_A    0.0000
   4956 H         186.9329  228.9173   76.0659 H       707      M_A    0.0000
   4957 C         185.7113  226.5098   75.9850 C.3     708      M_A    0.0000
   4958 C         185.8324  224.9994   76.1440 C.3     708      M_A    0.0000
   4959 O         184.9791  224.3690   75.1899 O.3     708      M_A    0.0000
   4960 H         186.1967  226.8314   75.0565 H       708      M_A    0.0000
   4961 H         184.6511  226.7787   75.9166 H       708      M_A    0.0000
   4962 H         185.5136  224.7380   77.1628 H       708      M_A    0.0000
   4963 H         186.8684  224.6639   76.0018 H       708      M_A    0.0000
   4964 C         184.9819  222.9684   75.3661 C.3     709      M_A    0.0000
   4965 C         184.3240  222.2289   74.2078 C.3     709      M_A    0.0000
   4966 O         184.1594  220.8596   74.5736 O.3     709      M_A    0.0000
   4967 H         184.4716  222.7278   76.3056 H       709      M_A    0.0000
   4968 H         186.0223  222.6363   75.4580 H       709      M_A    0.0000
   4969 H         184.9866  222.3067   73.3343 H       709      M_A    0.0000
   4970 H         183.3511  222.6697   73.9526 H       709      M_A    0.0000
   4971 C         183.2105  220.2304   73.7392 C.3     710      M_A    0.0000
   4972 C         183.3381  218.7121   73.7445 C.3     710      M_A    0.0000
   4973 O         184.0688  218.3103   72.5867 O.3     710      M_A    0.0000
   4974 H         183.3245  220.6148   72.7192 H       710      M_A    0.0000
   4975 H         182.2094  220.5067   74.0890 H       710      M_A    0.0000
   4976 H         182.3256  218.2856   73.7158 H       710      M_A    0.0000
   4977 H         183.8449  218.3563   74.6515 H       710      M_A    0.0000
   4978 C         183.6506  217.0347   72.1501 C.3     711      M_A    0.0000
   4979 C         184.4282  215.9031   72.8106 C.3     711      M_A    0.0000
   4980 O         184.3724  214.7552   71.9650 O.3     711      M_A    0.0000
   4981 H         183.7571  216.9798   71.0607 H       711      M_A    0.0000
   4982 H         182.5863  216.9232   72.3864 H       711      M_A    0.0000
   4983 H         183.9520  215.6813   73.7760 H       711      M_A    0.0000
   4984 H         185.4736  216.1876   72.9902 H       711      M_A    0.0000
   4985 C         183.0756  214.1977   71.9648 C.3     712      M_A    0.0000
   4986 C         183.0663  212.7308   71.5530 C.3     712      M_A    0.0000
   4987 O         181.8960  212.4810   70.7760 O.3     712      M_A    0.0000
   4988 H         182.4380  214.7822   71.2918 H       712      M_A    0.0000
   4989 H         182.6631  214.2882   72.9760 H       712      M_A    0.0000
   4990 H         183.0468  212.1210   72.4672 H       712      M_A    0.0000
   4991 H         183.9638  212.4716   70.9755 H       712      M_A    0.0000
   4992 C         181.3683  211.2039   71.0644 C.3     713      M_A    0.0000
   4993 C         181.3218  210.2970   69.8410 C.3     713      M_A    0.0000
   4994 O         180.3838  209.2495   70.0833 O.3     713      M_A    0.0000
   4995 H         180.3631  211.3219   71.4848 H       713      M_A    0.0000
   4996 H         181.9972  210.7381   71.8316 H       713      M_A    0.0000
   4997 H         182.3255  209.8748   69.6922 H       713      M_A    0.0000
   4998 H         181.0373  210.8557   68.9393 H       713      M_A    0.0000
   4999 C         180.6967  208.1104   69.3105 C.3     714      M_A    0.0000
   5000 C         179.4650  207.2915   68.9450 C.3     714      M_A    0.0000
   5001 O         179.8361  205.9159   68.8688 O.3     714      M_A    0.0000
   5002 H         181.4107  207.4906   69.8649 H       714      M_A    0.0000
   5003 H         181.1902  208.4447   68.3909 H       714      M_A    0.0000
   5004 H         179.1047  207.6375   67.9660 H       714      M_A    0.0000
   5005 H         178.6626  207.4244   69.6830 H       714      M_A    0.0000
   5006 C         181.0792  205.7695   68.2163 C.3     715      M_A    0.0000
   5007 C         180.9551  205.0815   66.8625 C.3     715      M_A    0.0000
   5008 O         181.6592  203.8415   66.9132 O.3     715      M_A    0.0000
   5009 H         181.7567  205.2039   68.8660 H       715      M_A    0.0000
   5010 H         181.5109  206.7665   68.0729 H       715      M_A    0.0000
   5011 H         181.4056  205.7379   66.1048 H       715      M_A    0.0000
   5012 H         179.9038  204.9066   66.5974 H       715      M_A    0.0000
   5013 C         181.4762  203.1141   65.7174 C.3     716      M_A    0.0000
   5014 C         181.9980  201.6857   65.8124 C.3     716      M_A    0.0000
   5015 O         182.5253  201.3058   64.5421 O.3     716      M_A    0.0000
   5016 H         181.9762  203.6446   64.8991 H       716      M_A    0.0000
   5017 H         180.4041  203.0892   65.4917 H       716      M_A    0.0000
   5018 H         181.1551  201.0327   66.0791 H       716      M_A    0.0000
   5019 H         182.7735  201.5936   66.5845 H       716      M_A    0.0000
   5020 C         183.3977  200.2038   64.6730 C.3     717      M_A    0.0000
   5021 C         183.5889  199.4468   63.3647 C.3     717      M_A    0.0000
   5022 O         183.8134  198.0693   63.6617 O.3     717      M_A    0.0000
   5023 H         183.0062  199.5309   65.4443 H       717      M_A    0.0000
   5024 H         184.3697  200.5748   65.0173 H       717      M_A    0.0000
   5025 H         184.4658  199.8678   62.8531 H       717      M_A    0.0000
   5026 H         182.7139  199.5527   62.7095 H       717      M_A    0.0000
   5027 C         184.3257  197.3924   62.5339 C.3     718      M_A    0.0000
   5028 C         183.6069  196.0770   62.2611 C.3     718      M_A    0.0000
   5029 O         184.4113  195.0056   62.7521 O.3     718      M_A    0.0000
   5030 H         185.3964  197.2130   62.6838 H       718      M_A    0.0000
   5031 H         184.2170  198.0473   61.6620 H       718      M_A    0.0000
   5032 H         183.4759  195.9801   61.1741 H       718      M_A    0.0000
   5033 H         182.6183  196.0547   62.7386 H       718      M_A    0.0000
   5034 C         183.9672  193.7699   62.2341 C.3     719      M_A    0.0000
   5035 C         182.9257  193.1004   63.1221 C.3     719      M_A    0.0000
   5036 O         182.9973  191.6888   62.9270 O.3     719      M_A    0.0000
   5037 H         184.8316  193.1090   62.1027 H       719      M_A    0.0000
   5038 H         183.5320  193.9492   61.2446 H       719      M_A    0.0000
   5039 H         181.9351  193.4707   62.8229 H       719      M_A    0.0000
   5040 H         183.0875  193.3426   64.1810 H       719      M_A    0.0000
   5041 C         182.3862  191.0048   64.0000 C.3     720      M_A    0.0000
   5042 C         182.6222  189.5004   63.9487 C.3     720      M_A    0.0000
   5043 O         181.4428  188.8689   63.4529 O.3     720      M_A    0.0000
   5044 H         181.3114  191.2184   63.9910 H       720      M_A    0.0000
   5045 H         182.7961  191.3997   64.9365 H       720      M_A    0.0000
   5046 H         182.8319  189.1540   64.9705 H       720      M_A    0.0000
   5047 H         183.4796  189.2514   63.3092 H       720      M_A    0.0000
   5048 C         181.3826  187.5228   63.8736 C.3     721      M_A    0.0000
   5049 C         181.8564  186.5499   62.8010 C.3     721      M_A    0.0000
   5050 O         181.1458  185.3217   62.9511 O.3     721      M_A    0.0000
   5051 H         180.3530  187.2883   64.1671 H       721      M_A    0.0000
   5052 H         182.0151  187.4123   64.7616 H       721      M_A    0.0000
   5053 H         182.9325  186.3808   62.9465 H       721      M_A    0.0000
   5054 H         181.6965  186.9563   61.7933 H       721      M_A    0.0000
   5055 C         181.9397  184.2313   62.5347 C.3     722      M_A    0.0000
   5056 C         181.1084  183.0512   62.0471 C.3     722      M_A    0.0000
   5057 O         181.3939  181.9200   62.8684 O.3     722      M_A    0.0000
   5058 H         182.5821  183.9218   63.3669 H       722      M_A    0.0000
   5059 H         182.5900  184.5716   61.7209 H       722      M_A    0.0000
   5060 H         181.3936  182.8410   61.0067 H       722      M_A    0.0000
   5061 H         180.0343  183.2780   62.0792 H       722      M_A    0.0000
   5062 C         180.5123  180.8566   62.5777 C.3     723      M_A    0.0000
   5063 C         180.9512  179.5403   63.2071 C.3     723      M_A    0.0000
   5064 O         181.0323  178.5487   62.1844 O.3     723      M_A    0.0000
   5065 H         180.4347  180.7471   61.4900 H       723      M_A    0.0000
   5066 H         179.5189  181.1211   62.9573 H       723      M_A    0.0000
   5067 H         180.1962  179.2506   63.9514 H       723      M_A    0.0000
   5068 H         181.9220  179.6416   63.7107 H       723      M_A    0.0000
   5069 C         181.5313  177.3348   62.7041 C.3     724      M_A    0.0000
   5070 C         181.9695  176.3646   61.6142 C.3     724      M_A    0.0000
   5071 O         181.7505  175.0314   62.0732 O.3     724      M_A    0.0000
   5072 H         180.7601  176.8737   63.3317 H       724      M_A    0.0000
   5073 H         182.3896  177.5636   63.3459 H       724      M_A    0.0000
   5074 H         183.0403  176.5253   61.4261 H       724      M_A    0.0000
   5075 H         181.4178  176.5363   60.6802 H       724      M_A    0.0000
   5076 C         181.4257  174.1793   60.9957 C.3     725      M_A    0.0000
   5077 C         179.9548  173.7824   60.9828 C.3     725      M_A    0.0000
   5078 O         179.8650  172.3614   60.8909 O.3     725      M_A    0.0000
   5079 H         182.0571  173.2851   61.0475 H       725      M_A    0.0000
   5080 H         181.6639  174.7011   60.0619 H       725      M_A    0.0000
   5081 H         179.4852  174.2455   60.1036 H       725      M_A    0.0000
   5082 H         179.4374  174.1345   61.8853 H       725      M_A    0.0000
   5083 C         178.5832  171.9158   61.2793 C.3     726      M_A    0.0000
   5084 C         178.3332  172.0751   62.7738 C.3     726      M_A    0.0000
   5085 O         176.9805  171.7167   63.0523 O.3     726      M_A    0.0000
   5086 H         178.4691  170.8655   60.9878 H       726      M_A    0.0000
   5087 H         177.8361  172.4973   60.7274 H       726      M_A    0.0000
   5088 H         178.5038  173.1285   63.0368 H       726      M_A    0.0000
   5089 H         179.0171  171.4495   63.3629 H       726      M_A    0.0000
   5090 C         176.8170  170.3151   63.0127 C.3     727      M_A    0.0000
   5091 C         175.5047  169.8585   63.6377 C.3     727      M_A    0.0000
   5092 O         175.7629  169.4093   64.9672 O.3     727      M_A    0.0000
   5093 H         177.6631  169.8445   63.5261 H       727      M_A    0.0000
   5094 H         176.8445  169.9960   61.9647 H       727      M_A    0.0000
   5095 H         175.1095  169.0307   63.0323 H       727      M_A    0.0000
   5096 H         174.7645  170.6697   63.6517 H       727      M_A    0.0000
   5097 C         174.5987  168.8558   65.5423 C.3     728      M_A    0.0000
   5098 C         173.8430  169.8513   66.4138 C.3     728      M_A    0.0000
   5099 O         173.0152  169.1273   67.3228 O.3     728      M_A    0.0000
   5100 H         174.8781  167.9750   66.1315 H       728      M_A    0.0000
   5101 H         173.9424  168.5193   64.7317 H       728      M_A    0.0000
   5102 H         173.2217  170.4757   65.7565 H       728      M_A    0.0000
   5103 H         174.5327  170.5013   66.9688 H       728      M_A    0.0000
   5104 C         172.1514  170.0021   68.0166 C.3     729      M_A    0.0000
   5105 C         171.4476  169.3273   69.1874 C.3     729      M_A    0.0000
   5106 O         170.3860  170.1710   69.6310 O.3     729      M_A    0.0000
   5107 H         171.4129  170.4034   67.3133 H       729      M_A    0.0000
   5108 H         172.7446  170.8435   68.3922 H       729      M_A    0.0000
   5109 H         172.1820  169.1929   69.9940 H       729      M_A    0.0000
   5110 H         171.0522  168.3429   68.9031 H       729      M_A    0.0000
   5111 C         169.4477  169.4368   70.3881 C.3     730      M_A    0.0000
   5112 C         168.0983  170.1368   70.4907 C.3     730      M_A    0.0000
   5113 O         167.9480  170.6493   71.8138 O.3     730      M_A    0.0000
   5114 H         169.8585  169.2614   71.3889 H       730      M_A    0.0000
   5115 H         169.3092  168.4608   69.9095 H       730      M_A    0.0000
   5116 H         167.3138  169.3951   70.2844 H       730      M_A    0.0000
   5117 H         168.0138  170.9520   69.7596 H       730      M_A    0.0000
   5118 C         166.6042  171.0024   72.0629 C.3     731      M_A    0.0000
   5119 C         166.3889  172.5104   72.0950 C.3     731      M_A    0.0000
   5120 O         165.1480  172.7816   72.7450 O.3     731      M_A    0.0000
   5121 H         166.2904  170.5563   73.0135 H       731      M_A    0.0000
   5122 H         165.9832  170.5689   71.2709 H       731      M_A    0.0000
   5123 H         166.3556  172.8714   71.0575 H       731      M_A    0.0000
   5124 H         167.2078  173.0204   72.6197 H       731      M_A    0.0000
   5125 C         164.0624  172.3933   71.9306 C.3     732      M_A    0.0000
   5126 C         162.9141  173.3942   71.9651 C.3     732      M_A    0.0000
   5127 O         162.0464  173.0579   73.0467 O.3     732      M_A    0.0000
   5128 H         163.7121  171.4062   72.2530 H       732      M_A    0.0000
   5129 H         164.4233  172.2981   70.9003 H       732      M_A    0.0000
   5130 H         162.3711  173.3219   71.0123 H       732      M_A    0.0000
   5131 H         163.2825  174.4219   72.0839 H       732      M_A    0.0000
   5132 C         161.1096  174.0889   73.2746 C.3     733      M_A    0.0000
   5133 C         161.7520  175.3555   73.8263 C.3     733      M_A    0.0000
   5134 O         160.7200  176.2407   74.2593 O.3     733      M_A    0.0000
   5135 H         160.3412  173.7240   73.9656 H       733      M_A    0.0000
   5136 H         160.6180  174.3220   72.3233 H       733      M_A    0.0000
   5137 H         162.3321  175.8226   73.0180 H       733      M_A    0.0000
   5138 H         162.4290  175.1299   74.6611 H       733      M_A    0.0000
   5139 C         160.8763  177.5150   73.6724 C.3     734      M_A    0.0000
   5140 C         160.2212  178.6224   74.4883 C.3     734      M_A    0.0000
   5141 O         159.2679  179.2939   73.6660 O.3     734      M_A    0.0000
   5142 H         160.4565  177.4935   72.6603 H       734      M_A    0.0000
   5143 H         161.9487  177.7224   73.5834 H       734      M_A    0.0000
   5144 H         161.0068  179.3243   74.8016 H       734      M_A    0.0000
   5145 H         159.7289  178.2214   75.3844 H       734      M_A    0.0000
   5146 C         158.4632  180.1588   74.4386 C.3     735      M_A    0.0000
   5147 C         157.3046  180.7495   73.6448 C.3     735      M_A    0.0000
   5148 O         156.9868  182.0315   74.1843 O.3     735      M_A    0.0000
   5149 H         159.0910  180.9609   74.8430 H       735      M_A    0.0000
   5150 H         158.0635  179.5900   75.2857 H       735      M_A    0.0000
   5151 H         156.4429  180.0751   73.7478 H       735      M_A    0.0000
   5152 H         157.5551  180.8411   72.5794 H       735      M_A    0.0000
   5153 C         155.5906  182.2392   74.1890 C.3     736      M_A    0.0000
   5154 C         155.1914  183.5656   73.5542 C.3     736      M_A    0.0000
   5155 O         153.9936  184.0283   74.1761 O.3     736      M_A    0.0000
   5156 H         155.2281  182.1913   75.2221 H       736      M_A    0.0000
   5157 H         155.1202  181.4204   73.6330 H       736      M_A    0.0000
   5158 H         155.0149  183.3908   72.4836 H       736      M_A    0.0000
   5159 H         155.9858  184.3161   73.6626 H       736      M_A    0.0000
   5160 C         154.2657  184.5456   75.4610 C.3     737      M_A    0.0000
   5161 C         153.0811  185.2975   76.0550 C.3     737      M_A    0.0000
   5162 O         153.0916  186.6346   75.5570 O.3     737      M_A    0.0000
   5163 H         155.1390  185.2050   75.4006 H       737      M_A    0.0000
   5164 H         154.5254  183.7091   76.1196 H       737      M_A    0.0000
   5165 H         153.1956  185.3036   77.1481 H       737      M_A    0.0000
   5166 H         152.1302  184.8095   75.8029 H       737      M_A    0.0000
   5167 C         151.8537  187.2678   75.8003 C.3     738      M_A    0.0000
   5168 C         150.7236  186.6941   74.9545 C.3     738      M_A    0.0000
   5169 O         150.4576  187.5911   73.8773 O.3     738      M_A    0.0000
   5170 H         151.9605  188.3415   75.6086 H       738      M_A    0.0000
   5171 H         151.6066  187.1420   76.8605 H       738      M_A    0.0000
   5172 H         149.8342  186.6010   75.5934 H       738      M_A    0.0000
   5173 H         150.9816  185.7012   74.5624 H       738      M_A    0.0000
   5174 C         149.0816  187.5991   73.5623 C.3     739      M_A    0.0000
   5175 C         148.7860  186.9770   72.2032 C.3     739      M_A    0.0000
   5176 O         147.6019  187.5727   71.6752 O.3     739      M_A    0.0000
   5177 H         148.7167  188.6321   73.5916 H       739      M_A    0.0000
   5178 H         148.5491  187.0360   74.3371 H       739      M_A    0.0000
   5179 H         148.6306  185.8988   72.3491 H       739      M_A    0.0000
   5180 H         149.6227  187.1215   71.5066 H       739      M_A    0.0000
   5181 C         147.4232  187.2139   70.3217 C.3     740      M_A    0.0000
   5182 C         145.9891  187.4097   69.8459 C.3     740      M_A    0.0000
   5183 O         145.2645  186.2007   70.0673 O.3     740      M_A    0.0000
   5184 H         147.7253  186.1688   70.1887 H       740      M_A    0.0000
   5185 H         148.0905  187.8332   69.7117 H       740      M_A    0.0000
   5186 H         146.0156  187.6397   68.7715 H       740      M_A    0.0000
   5187 H         145.5028  188.2416   70.3726 H       740      M_A    0.0000
   5188 C         144.5095  186.2817   71.2573 C.3     741      M_A    0.0000
   5189 C         143.7766  184.9851   71.5781 C.3     741      M_A    0.0000
   5190 O         142.3723  185.2375   71.5629 O.3     741      M_A    0.0000
   5191 H         143.7942  187.1072   71.1683 H       741      M_A    0.0000
   5192 H         145.1920  186.5203   72.0809 H       741      M_A    0.0000
   5193 H         144.0879  184.6572   72.5798 H       741      M_A    0.0000
   5194 H         144.0249  184.1959   70.8559 H       741      M_A    0.0000
   5195 C         141.6785  184.2433   72.2859 C.3     742      M_A    0.0000
   5196 C         141.8614  182.8510   71.6949 C.3     742      M_A    0.0000
   5197 O         140.6794  182.0907   71.9407 O.3     742      M_A    0.0000
   5198 H         140.6142  184.5036   72.3155 H       742      M_A    0.0000
   5199 H         142.0504  184.2464   73.3167 H       742      M_A    0.0000
   5200 H         142.7206  182.3802   72.1932 H       742      M_A    0.0000
   5201 H         142.0615  182.8974   70.6161 H       742      M_A    0.0000
   5202 C         140.9777  180.7128   72.0121 C.3     743      M_A    0.0000
   5203 C         140.0404  179.8636   71.1625 C.3     743      M_A    0.0000
   5204 O         140.1907  178.4965   71.5426 O.3     743      M_A    0.0000
   5205 H         140.9309  180.3933   73.0594 H       743      M_A    0.0000
   5206 H         142.0068  180.5662   71.6652 H       743      M_A    0.0000
   5207 H         140.3250  179.9934   70.1089 H       743      M_A    0.0000
   5208 H         138.9948  180.1758   71.2864 H       743      M_A    0.0000
   5209 C         141.1208  178.3707   72.5969 C.3     744      M_A    0.0000
   5210 C         141.8155  177.0147   72.6093 C.3     744      M_A    0.0000
   5211 O         141.7387  176.4732   73.9272 O.3     744      M_A    0.0000
   5212 H         140.6036  178.5380   73.5485 H       744      M_A    0.0000
   5213 H         141.8748  179.1581   72.4850 H       744      M_A    0.0000
   5214 H         142.8667  177.1685   72.3276 H       744      M_A    0.0000
   5215 H         141.3557  176.3229   71.8909 H       744      M_A    0.0000
   5216 C         142.4176  175.2377   73.9998 C.3     745      M_A    0.0000
   5217 C         141.5348  174.0582   73.6116 C.3     745      M_A    0.0000
   5218 O         142.3685  172.9328   73.3393 O.3     745      M_A    0.0000
   5219 H         142.8013  175.1028   75.0175 H       745      M_A    0.0000
   5220 H         143.2782  175.2789   73.3225 H       745      M_A    0.0000
   5221 H         140.9733  174.3362   72.7087 H       745      M_A    0.0000
   5222 H         140.8208  173.8132   74.4093 H       745      M_A    0.0000
   5223 C         143.7253  173.3183   73.2832 C.3     746      M_A    0.0000
   5224 C         144.1812  173.6608   71.8704 C.3     746      M_A    0.0000
   5225 O         144.3301  172.4495   71.1313 O.3     746      M_A    0.0000
   5226 H         144.3413  172.5096   73.6926 H       746      M_A    0.0000
   5227 H         143.8593  174.1962   73.9253 H       746      M_A    0.0000
   5228 H         145.1483  174.1783   71.9411 H       746      M_A    0.0000
   5229 H         143.4633  174.3226   71.3676 H       746      M_A    0.0000
   5230 C         144.0957  171.3287   71.9569 C.3     747      M_A    0.0000
   5231 C         145.1710  170.2587   71.8148 C.3     747      M_A    0.0000
   5232 O         144.5456  168.9764   71.8327 O.3     747      M_A    0.0000
   5233 H         143.1123  170.9095   71.7155 H       747      M_A    0.0000
   5234 H         144.0655  171.6699   72.9979 H       747      M_A    0.0000
   5235 H         145.8588  170.3524   72.6669 H       747      M_A    0.0000
   5236 H         145.7418  170.3860   70.8853 H       747      M_A    0.0000
   5237 C         145.4721  167.9642   71.5014 C.3     748      M_A    0.0000
   5238 C         145.8168  167.9455   70.0174 C.3     748      M_A    0.0000
   5239 O         144.6089  168.0538   69.2657 O.3     748      M_A    0.0000
   5240 H         145.0622  166.9944   71.8056 H       748      M_A    0.0000
   5241 H         146.3874  168.1346   72.0794 H       748      M_A    0.0000
   5242 H         146.3124  166.9899   69.7954 H       748      M_A    0.0000
   5243 H         146.4984  168.7655   69.7546 H       748      M_A    0.0000
   5244 C         143.8738  166.8502   69.3256 C.3     749      M_A    0.0000
   5245 C         144.4734  165.7514   68.4570 C.3     749      M_A    0.0000
   5246 O         143.4428  165.2034   67.6363 O.3     749      M_A    0.0000
   5247 H         142.8403  167.0500   69.0208 H       749      M_A    0.0000
   5248 H         143.8539  166.5119   70.3677 H       749      M_A    0.0000
   5249 H         144.8766  164.9744   69.1216 H       749      M_A    0.0000
   5250 H         145.2885  166.1368   67.8300 H       749      M_A    0.0000
   5251 C         143.2280  163.8430   67.9463 C.3     750      M_A    0.0000
   5252 C         144.5222  163.0409   68.0000 C.3     750      M_A    0.0000
   5253 O         144.2313  161.6810   67.6808 O.3     750      M_A    0.0000
   5254 H         142.5482  163.4126   67.2022 H       750      M_A    0.0000
   5255 H         142.7318  163.7877   68.9218 H       750      M_A    0.0000
   5256 H         144.9225  163.1091   69.0213 H       750      M_A    0.0000
   5257 H         145.2696  163.4398   67.3011 H       750      M_A    0.0000
   5258 C         144.1310  160.9030   68.8544 C.3     751      M_A    0.0000
   5259 C         142.9582  159.9311   68.8170 C.3     751      M_A    0.0000
   5260 O         142.9034  159.2322   70.0597 O.3     751      M_A    0.0000
   5261 H         144.0387  161.5724   69.7172 H       751      M_A    0.0000
   5262 H         145.0618  160.3365   68.9709 H       751      M_A    0.0000
   5263 H         143.1302  159.2219   67.9952 H       751      M_A    0.0000
   5264 H         142.0099  160.4551   68.6378 H       751      M_A    0.0000
   5265 C         143.5990  159.9414   71.0626 C.3     752      M_A    0.0000
   5266 C         145.1108  159.8841   70.8820 C.3     752      M_A    0.0000
   5267 O         145.7326  160.3350   72.0844 O.3     752      M_A    0.0000
   5268 H         143.3206  159.5359   72.0420 H       752      M_A    0.0000
   5269 H         143.2741  160.9875   71.0311 H       752      M_A    0.0000
   5270 H         145.3792  160.5487   70.0488 H       752      M_A    0.0000
   5271 H         145.4469  158.8662   70.6434 H       752      M_A    0.0000
   5272 C         145.5887  161.7319   72.2275 C.3     753      M_A    0.0000
   5273 C         146.0978  162.2409   73.5703 C.3     753      M_A    0.0000
   5274 O         145.0045  162.2890   74.4858 O.3     753      M_A    0.0000
   5275 H         144.5323  161.9948   72.1006 H       753      M_A    0.0000
   5276 H         146.1517  162.2189   71.4233 H       753      M_A    0.0000
   5277 H         146.5051  163.2505   73.4192 H       753      M_A    0.0000
   5278 H         146.8930  161.5958   73.9674 H       753      M_A    0.0000
   5279 C         145.2519  163.2280   75.5103 C.3     754      M_A    0.0000
   5280 C         145.6665  162.5721   76.8215 C.3     754      M_A    0.0000
   5281 O         144.8052  163.0385   77.8589 O.3     754      M_A    0.0000
   5282 H         144.3519  163.8350   75.6604 H       754      M_A    0.0000
   5283 H         146.0527  163.8974   75.1760 H       754      M_A    0.0000
   5284 H         146.7041  162.8651   77.0353 H       754      M_A    0.0000
   5285 H         145.6162  161.4770   76.7545 H       754      M_A    0.0000
   5286 C         144.6553  164.4405   77.7910 C.3     755      M_A    0.0000
   5287 C         143.3053  164.8606   77.2231 C.3     755      M_A    0.0000
   5288 O         142.5959  165.5911   78.2225 O.3     755      M_A    0.0000
   5289 H         145.4663  164.8550   77.1814 H       755      M_A    0.0000
   5290 H         144.7596  164.8461   78.8036 H       755      M_A    0.0000
   5291 H         142.7495  163.9501   76.9585 H       755      M_A    0.0000
   5292 H         143.4245  165.4755   76.3211 H       755      M_A    0.0000
   5293 C         142.8517  166.9744   78.1060 C.3     756      M_A    0.0000
   5294 C         141.6018  167.7767   77.7662 C.3     756      M_A    0.0000
   5295 O         141.5092  167.9006   76.3478 O.3     756      M_A    0.0000
   5296 H         143.6196  167.1301   77.3397 H       756      M_A    0.0000
   5297 H         143.2569  167.3299   79.0601 H       756      M_A    0.0000
   5298 H         141.7010  168.7711   78.2238 H       756      M_A    0.0000
   5299 H         140.6974  167.2953   78.1617 H       756      M_A    0.0000
   5300 C         142.6534  167.3590   75.7234 C.3     757      M_A    0.0000
   5301 C         142.3074  166.3528   74.6329 C.3     757      M_A    0.0000
   5302 O         141.1295  165.6464   75.0192 O.3     757      M_A    0.0000
   5303 H         143.2839  166.8871   76.4856 H       757      M_A    0.0000
   5304 H         143.2256  168.1828   75.2818 H       757      M_A    0.0000
   5305 H         143.1495  165.6532   74.5359 H       757      M_A    0.0000
   5306 H         142.1484  166.8492   73.6662 H       757      M_A    0.0000
   5307 C         140.9398  165.7180   76.4162 C.3     758      M_A    0.0000
   5308 C         140.8641  164.3440   77.0704 C.3     758      M_A    0.0000
   5309 O         139.5733  164.1874   77.6578 O.3     758      M_A    0.0000
   5310 H         140.0243  166.2843   76.6215 H       758      M_A    0.0000
   5311 H         141.7792  166.2744   76.8483 H       758      M_A    0.0000
   5312 H         141.6388  164.2946   77.8484 H       758      M_A    0.0000
   5313 H         141.0453  163.5431   76.3411 H       758      M_A    0.0000
   5314 C         139.1320  165.4025   78.2249 C.3     759      M_A    0.0000
   5315 C         140.2223  166.1105   79.0195 C.3     759      M_A    0.0000
   5316 O         140.4818  165.3631   80.2068 O.3     759      M_A    0.0000
   5317 H         138.2676  165.2009   78.8677 H       759      M_A    0.0000
   5318 H         138.7973  166.0583   77.4133 H       759      M_A    0.0000
   5319 H         139.8562  167.1136   79.2801 H       759      M_A    0.0000
   5320 H         141.1437  166.2135   78.4307 H       759      M_A    0.0000
   5321 C         141.8300  165.5038   80.6007 C.3     760      M_A    0.0000
   5322 C         142.7327  164.4333   80.0003 C.3     760      M_A    0.0000
   5323 O         143.2131  163.5972   81.0519 O.3     760      M_A    0.0000
   5324 H         141.8852  165.4733   81.6949 H       760      M_A    0.0000
   5325 H         142.1808  166.4904   80.2773 H       760      M_A    0.0000
   5326 H         143.5758  164.9369   79.5067 H       760      M_A    0.0000
   5327 H         142.1971  163.8302   79.2549 H       760      M_A    0.0000
   5328 C         143.8445  162.4486   80.5278 C.3     761      M_A    0.0000
   5329 C         145.2334  162.2230   81.1122 C.3     761      M_A    0.0000
   5330 O         146.1308  163.1726   80.5387 O.3     761      M_A    0.0000
   5331 H         143.9048  162.5430   79.4376 H       761      M_A    0.0000
   5332 H         143.2162  161.5792   80.7523 H       761      M_A    0.0000
   5333 H         145.5502  161.2032   80.8524 H       761      M_A    0.0000
   5334 H         145.2285  162.3228   82.2058 H       761      M_A    0.0000
   5335 C         145.5976  164.4770   80.6217 C.3     762      M_A    0.0000
   5336 C         146.3764  165.4847   79.7855 C.3     762      M_A    0.0000
   5337 O         146.6870  166.6134   80.6011 O.3     762      M_A    0.0000
   5338 H         145.5844  164.7889   81.6723 H       762      M_A    0.0000
   5339 H         144.5600  164.4464   80.2707 H       762      M_A    0.0000
   5340 H         145.7394  165.7935   78.9447 H       762      M_A    0.0000
   5341 H         147.2995  165.0443   79.3853 H       762      M_A    0.0000
   5342 C         147.9173  166.4250   81.2671 C.3     763      M_A    0.0000
   5343 C         148.6604  167.7326   81.5103 C.3     763      M_A    0.0000
   5344 O         149.6519  167.8908   80.4965 O.3     763      M_A    0.0000
   5345 H         148.5391  165.7419   80.6773 H       763      M_A    0.0000
   5346 H         147.7156  165.9433   82.2305 H       763      M_A    0.0000
   5347 H         149.1397  167.6729   82.4975 H       763      M_A    0.0000
   5348 H         147.9744  168.5902   81.5027 H       763      M_A    0.0000
   5349 C         149.7268  166.7370   79.6867 C.3     764      M_A    0.0000
   5350 C         151.1487  166.4261   79.2363 C.3     764      M_A    0.0000
   5351 O         151.3783  165.0252   79.3802 O.3     764      M_A    0.0000
   5352 H         149.0762  166.8722   78.8152 H       764      M_A    0.0000
   5353 H         149.3399  165.8884   80.2622 H       764      M_A    0.0000
   5354 H         151.8400  166.9875   79.8805 H       764      M_A    0.0000
   5355 H         151.3135  166.7293   78.1937 H       764      M_A    0.0000
   5356 C         150.9685  164.3305   78.2217 C.3     765      M_A    0.0000
   5357 C         151.8323  163.1092   77.9323 C.3     765      M_A    0.0000
   5358 O         151.0435  161.9355   78.1225 O.3     765      M_A    0.0000
   5359 H         150.9903  165.0184   77.3689 H       765      M_A    0.0000
   5360 H         149.9305  164.0092   78.3636 H       765      M_A    0.0000
   5361 H         152.6747  163.1134   78.6381 H       765      M_A    0.0000
   5362 H         152.2298  163.1336   76.9088 H       765      M_A    0.0000
   5363 C         151.8408  160.8684   78.5898 C.3     766      M_A    0.0000
   5364 C         151.8641  159.6869   77.6281 C.3     766      M_A    0.0000
   5365 O         151.3540  158.5377   78.3025 O.3     766      M_A    0.0000
   5366 H         151.4679  160.5496   79.5698 H       766      M_A    0.0000
   5367 H         152.8631  161.2385   78.7271 H       766      M_A    0.0000
   5368 H         152.9070  159.5134   77.3277 H       766      M_A    0.0000
   5369 H         151.2676  159.8911   76.7288 H       766      M_A    0.0000
   5370 C         151.0198  157.5239   77.3789 C.3     767      M_A    0.0000
   5371 C         149.8009  157.8758   76.5351 C.3     767      M_A    0.0000
   5372 O         148.8490  156.8185   76.6431 O.3     767      M_A    0.0000
   5373 H         150.8435  156.5902   77.9250 H       767      M_A    0.0000
   5374 H         151.8792  157.3655   76.7176 H       767      M_A    0.0000
   5375 H         150.1285  157.9804   75.4912 H       767      M_A    0.0000
   5376 H         149.3496  158.8230   76.8595 H       767      M_A    0.0000
   5377 C         149.3000  155.6687   75.9597 C.3     768      M_A    0.0000
   5378 C         149.3252  155.8554   74.4478 C.3     768      M_A    0.0000
   5379 O         148.8323  154.6667   73.8317 O.3     768      M_A    0.0000
   5380 H         148.6555  154.8228   76.2245 H       768      M_A    0.0000
   5381 H         150.3127  155.4374   76.3088 H       768      M_A    0.0000
   5382 H         150.3668  156.0311   74.1441 H       768      M_A    0.0000
   5383 H         148.7183  156.7178   74.1410 H       768      M_A    0.0000
   5384 C         149.5736  153.5416   74.2528 C.3     769      M_A    0.0000
   5385 C         149.6510  152.4559   73.1866 C.3     769      M_A    0.0000
   5386 O         149.0975  151.2528   73.7176 O.3     769      M_A    0.0000
   5387 H         149.1216  153.1407   75.1671 H       769      M_A    0.0000
   5388 H         150.5883  153.8727   74.5009 H       769      M_A    0.0000
   5389 H         150.7095  152.3022   72.9339 H       769      M_A    0.0000
   5390 H         149.1104  152.7493   72.2768 H       769      M_A    0.0000
   5391 C         149.6102  150.1256   73.0400 C.3     770      M_A    0.0000
   5392 C         148.5985  149.5026   72.0862 C.3     770      M_A    0.0000
   5393 O         148.5893  148.0901   72.2876 O.3     770      M_A    0.0000
   5394 H         149.9370  149.3854   73.7792 H       770      M_A    0.0000
   5395 H         150.4925  150.4395   72.4709 H       770      M_A    0.0000
   5396 H         148.9132  149.7330   71.0587 H       770      M_A    0.0000
   5397 H         147.5922  149.9121   72.2469 H       770      M_A    0.0000
   5398 C         147.5023  147.4962   71.6108 C.3     771      M_A    0.0000
   5399 C         147.0018  146.2318   72.2979 C.3     771      M_A    0.0000
   5400 O         146.3969  145.3880   71.3193 O.3     771      M_A    0.0000
   5401 H         147.8049  147.2715   70.5817 H       771      M_A    0.0000
   5402 H         146.6861  148.2261   71.5658 H       771      M_A    0.0000
   5403 H         146.2576  146.5258   73.0513 H       771      M_A    0.0000
   5404 H         147.8202  145.6987   72.8002 H       771      M_A    0.0000
   5405 C         145.2903  144.7029   71.8659 C.3     772      M_A    0.0000
   5406 C         145.3730  143.1953   71.6620 C.3     772      M_A    0.0000
   5407 O         144.5564  142.8388   70.5476 O.3     772      M_A    0.0000
   5408 H         144.3719  145.0947   71.4142 H       772      M_A    0.0000
   5409 H         145.2506  144.9172   72.9399 H       772      M_A    0.0000
   5410 H         144.9981  142.7077   72.5729 H       772      M_A    0.0000
   5411 H         146.4079  142.8710   71.4890 H       772      M_A    0.0000
   5412 C         143.9436  141.5847   70.7584 C.3     773      M_A    0.0000
   5413 C         144.7624  140.4286   70.1973 C.3     773      M_A    0.0000
   5414 O         144.0361  139.8322   69.1238 O.3     773      M_A    0.0000
   5415 H         142.9464  141.5960   70.3039 H       773      M_A    0.0000
   5416 H         143.8159  141.4424   71.8374 H       773      M_A    0.0000
   5417 H         144.9115  139.6953   71.0023 H       773      M_A    0.0000
   5418 H         145.7449  140.7687   69.8438 H       773      M_A    0.0000
   5419 C         144.5767  138.5703   68.7954 C.3     774      M_A    0.0000
   5420 C         144.2018  138.1178   67.3897 C.3     774      M_A    0.0000
   5421 O         143.6945  136.7860   67.4577 O.3     774      M_A    0.0000
   5422 H         144.2341  137.8348   69.5322 H       774      M_A    0.0000
   5423 H         145.6680  138.6342   68.8719 H       774      M_A    0.0000
   5424 H         145.1100  138.1421   66.7710 H       774      M_A    0.0000
   5425 H         143.4522  138.7837   66.9416 H       774      M_A    0.0000
   5426 C         142.3829  136.7773   67.9796 C.3     775      M_A    0.0000
   5427 C         141.9738  135.4123   68.5188 C.3     775      M_A    0.0000
   5428 O         140.7530  135.0202   67.8928 O.3     775      M_A    0.0000
   5429 H         141.6869  137.0973   67.1958 H       775      M_A    0.0000
   5430 H         142.3316  137.5126   68.7905 H       775      M_A    0.0000
   5431 H         141.8258  135.5056   69.6038 H       775      M_A    0.0000
   5432 H         142.7510  134.6591   68.3324 H       775      M_A    0.0000
   5433 C         140.6602  135.5654   66.5940 C.3     776      M_A    0.0000
   5434 C         141.3500  134.7033   65.5440 C.3     776      M_A    0.0000
   5435 O         142.6412  135.2498   65.2796 O.3     776      M_A    0.0000
   5436 H         141.0939  136.5719   66.5997 H       776      M_A    0.0000
   5437 H         139.5992  135.6617   66.3374 H       776      M_A    0.0000
   5438 H         140.7390  134.7258   64.6307 H       776      M_A    0.0000
   5439 H         141.4438  133.6619   65.8799 H       776      M_A    0.0000
   5440 C         143.6248  134.2374   65.2954 C.3     777      M_A    0.0000
   5441 C         144.8642  134.6343   66.0877 C.3     777      M_A    0.0000
   5442 O         145.4487  133.4571   66.6430 O.3     777      M_A    0.0000
   5443 H         143.8994  133.9931   64.2629 H       777      M_A    0.0000
   5444 H         143.1854  133.3393   65.7442 H       777      M_A    0.0000
   5445 H         144.5502  135.3130   66.8931 H       777      M_A    0.0000
   5446 H         145.5949  135.1540   65.4536 H       777      M_A    0.0000
   5447 C         144.4513  132.5931   67.1443 C.3     778      M_A    0.0000
   5448 C         144.9995  131.5758   68.1372 C.3     778      M_A    0.0000
   5449 O         144.0687  130.5005   68.2517 O.3     778      M_A    0.0000
   5450 H         143.9717  132.0789   66.3036 H       778      M_A    0.0000
   5451 H         143.6877  133.2024   67.6410 H       778      M_A    0.0000
   5452 H         145.1152  132.0768   69.1086 H       778      M_A    0.0000
   5453 H         145.9787  131.1935   67.8190 H       778      M_A    0.0000
   5454 C         143.2312  130.4421   67.1169 C.3     779      M_A    0.0000
   5455 C         141.8342  129.9287   67.4429 C.3     779      M_A    0.0000
   5456 O         141.7351  128.5704   67.0173 O.3     779      M_A    0.0000
   5457 H         143.7012  129.8023   66.3614 H       779      M_A    0.0000
   5458 H         143.1526  131.4510   66.6962 H       779      M_A    0.0000
   5459 H         141.1084  130.5470   66.8963 H       779      M_A    0.0000
   5460 H         141.6215  130.0027   68.5178 H       779      M_A    0.0000
   5461 C         140.3938  128.2318   66.7365 C.3     780      M_A    0.0000
   5462 C         139.8661  127.1231   67.6386 C.3     780      M_A    0.0000
   5463 O         139.7548  125.9243   66.8730 O.3     780      M_A    0.0000
   5464 H         140.3161  127.9316   65.6853 H       780      M_A    0.0000
   5465 H         139.7780  129.1279   66.8730 H       780      M_A    0.0000
   5466 H         138.8759  127.4265   68.0066 H       780      M_A    0.0000
   5467 H         140.5273  126.9594   68.5000 H       780      M_A    0.0000
   5468 C         139.6047  124.8039   67.7185 C.3     781      M_A    0.0000
   5469 C         140.1145  123.5160   67.0839 C.3     781      M_A    0.0000
   5470 O         139.5543  122.4072   67.7856 O.3     781      M_A    0.0000
   5471 H         138.5469  124.6998   67.9854 H       781      M_A    0.0000
   5472 H         140.1637  124.9937   68.6418 H       781      M_A    0.0000
   5473 H         141.2098  123.5025   67.1744 H       781      M_A    0.0000
   5474 H         139.8481  123.4615   66.0199 H       781      M_A    0.0000
   5475 C         139.9759  121.1883   67.2117 C.3     782      M_A    0.0000
   5476 C         139.9847  120.0394   68.2124 C.3     782      M_A    0.0000
   5477 O         141.0772  119.1742   67.9060 O.3     782      M_A    0.0000
   5478 H         140.9761  121.3242   66.7848 H       782      M_A    0.0000
   5479 H         139.2940  120.9421   66.3899 H       782      M_A    0.0000
   5480 H         139.0354  119.4945   68.1130 H       782      M_A    0.0000
   5481 H         140.0737  120.4073   69.2433 H       782      M_A    0.0000
   5482 C         140.9368  117.9376   68.5722 C.3     783      M_A    0.0000
   5483 C         142.2614  117.2017   68.7310 C.3     783      M_A    0.0000
   5484 O         142.0124  115.7974   68.6897 O.3     783      M_A    0.0000
   5485 H         140.2237  117.3156   68.0192 H       783      M_A    0.0000
   5486 H         140.5122  118.1286   69.5642 H       783      M_A    0.0000
   5487 H         142.6896  117.4783   69.7047 H       783      M_A    0.0000
   5488 H         142.9716  117.4813   67.9414 H       783      M_A    0.0000
   5489 C         141.7535  115.3747   67.3680 C.3     784      M_A    0.0000
   5490 C         141.9319  113.8726   67.1855 C.3     784      M_A    0.0000
   5491 O         143.2960  113.6102   66.8593 O.3     784      M_A    0.0000
   5492 H         142.4160  115.9189   66.6851 H       784      M_A    0.0000
   5493 H         140.7218  115.6458   67.1170 H       784      M_A    0.0000
   5494 H         141.2805  113.5504   66.3610 H       784      M_A    0.0000
   5495 H         141.6496  113.3229   68.0933 H       784      M_A    0.0000
   5496 C         144.1147  113.7293   68.0031 C.3     785      M_A    0.0000
   5497 C         145.4581  113.0292   67.8399 C.3     785      M_A    0.0000
   5498 O         146.4781  113.8632   68.3876 O.3     785      M_A    0.0000
   5499 H         143.5789  113.3205   68.8673 H       785      M_A    0.0000
   5500 H         144.2870  114.7949   68.1920 H       785      M_A    0.0000
   5501 H         145.6343  112.8773   66.7658 H       785      M_A    0.0000
   5502 H         145.4630  112.0513   68.3397 H       785      M_A    0.0000
   5503 C         147.6731  113.1347   68.5720 C.3     786      M_A    0.0000
   5504 C         148.8123  113.6426   67.6969 C.3     786      M_A    0.0000
   5505 O         149.2775  112.5677   66.8820 O.3     786      M_A    0.0000
   5506 H         147.4797  112.0765   68.3626 H       786      M_A    0.0000
   5507 H         147.9662  113.2174   69.6247 H       786      M_A    0.0000
   5508 H         149.6196  113.9896   68.3570 H       786      M_A    0.0000
   5509 H         148.4886  114.4807   67.0653 H       786      M_A    0.0000
   5510 C         149.8362  113.0568   65.6815 C.3     787      M_A    0.0000
   5511 C         150.3656  111.9453   64.7838 C.3     787      M_A    0.0000
   5512 O         151.7913  112.0016   64.7784 O.3     787      M_A    0.0000
   5513 H         150.6406  113.7602   65.9250 H       787      M_A    0.0000
   5514 H         149.0600  113.6124   65.1433 H       787      M_A    0.0000
   5515 H         149.9796  112.1149   63.7688 H       787      M_A    0.0000
   5516 H         150.0294  110.9583   65.1285 H       787      M_A    0.0000
   5517 C         152.2452  113.0883   64.0000 C.3     788      M_A    0.0000
   5518 C         153.2300  112.6651   62.9172 C.3     788      M_A    0.0000
   5519 O         154.5379  112.6091   63.4848 O.3     788      M_A    0.0000
   5520 H         152.7075  113.8299   64.6613 H       788      M_A    0.0000
   5521 H         151.3753  113.5594   63.5284 H       788      M_A    0.0000
   5522 H         153.2003  113.4181   62.1172 H       788      M_A    0.0000
   5523 H         152.9622  111.6885   62.4922 H       788      M_A    0.0000
   5524 C         154.6838  111.4591   64.2904 C.3     789      M_A    0.0000
   5525 C         156.1091  110.9208   64.2940 C.3     789      M_A    0.0000
   5526 O         156.0737  109.5345   64.6298 O.3     789      M_A    0.0000
   5527 H         153.9902  110.6877   63.9369 H       789      M_A    0.0000
   5528 H         154.3970  111.7198   65.3155 H       789      M_A    0.0000
   5529 H         156.6804  111.4757   65.0514 H       789      M_A    0.0000
   5530 H         156.5916  111.0591   63.3172 H       789      M_A    0.0000
   5531 C         155.6171  108.7673   63.5364 C.3     790      M_A    0.0000
   5532 C         156.5423  107.6021   63.2085 C.3     790      M_A    0.0000
   5533 O         157.7469  108.1189   62.6449 O.3     790      M_A    0.0000
   5534 H         155.5107  109.4216   62.6636 H       790      M_A    0.0000
   5535 H         154.6231  108.3769   63.7826 H       790      M_A    0.0000
   5536 H         156.0326  106.9582   62.4780 H       790      M_A    0.0000
   5537 H         156.7702  107.0080   64.1036 H       790      M_A    0.0000
   5538 C         158.2433  109.1879   63.4219 C.3     791      M_A    0.0000
   5539 C         159.6800  108.9657   63.8779 C.3     791      M_A    0.0000
   5540 O         159.7581  107.7085   64.5481 O.3     791      M_A    0.0000
   5541 H         157.5896  109.3290   64.2902 H       791      M_A    0.0000
   5542 H         158.1964  110.1013   62.8183 H       791      M_A    0.0000
   5543 H         159.9465  109.7769   64.5699 H       791      M_A    0.0000
   5544 H         160.3765  108.9835   63.0290 H       791      M_A    0.0000
   5545 C         161.0776  107.2079   64.5182 C.3     792      M_A    0.0000
   5546 C         161.5028  106.7538   63.1274 C.3     792      M_A    0.0000
   5547 O         162.8250  106.2230   63.2037 O.3     792      M_A    0.0000
   5548 H         161.1578  106.3762   65.2274 H       792      M_A    0.0000
   5549 H         161.7532  108.0011   64.8579 H       792      M_A    0.0000
   5550 H         161.4881  107.6301   62.4642 H       792      M_A    0.0000
   5551 H         160.8159  105.9966   62.7263 H       792      M_A    0.0000
   5552 C         163.5595  106.5432   62.0415 C.3     793      M_A    0.0000
   5553 C         164.1833  105.3183   61.3842 C.3     793      M_A    0.0000
   5554 O         165.5809  105.5512   61.2160 O.3     793      M_A    0.0000
   5555 H         164.3382  107.2688   62.3024 H       793      M_A    0.0000
   5556 H         162.8808  107.0253   61.3288 H       793      M_A    0.0000
   5557 H         163.7058  105.1779   60.4043 H       793      M_A    0.0000
   5558 H         164.0224  104.4149   61.9875 H       793      M_A    0.0000
   5559 C         166.2999  104.3378   61.2734 C.3     794      M_A    0.0000
   5560 C         166.8418  103.9107   59.9150 C.3     794      M_A    0.0000
   5561 O         167.0835  102.5047   59.9402 O.3     794      M_A    0.0000
   5562 H         165.6472  103.5575   61.6813 H       794      M_A    0.0000
   5563 H         167.1373  104.4678   61.9681 H       794      M_A    0.0000
   5564 H         167.7832  104.4500   59.7395 H       794      M_A    0.0000
   5565 H         166.1387  104.1572   59.1082 H       794      M_A    0.0000
   5566 C         167.7471  102.1334   61.1295 C.3     795      M_A    0.0000
   5567 C         169.0137  101.3275   60.8689 C.3     795      M_A    0.0000
   5568 O         168.7015   99.9390   60.9709 O.3     795      M_A    0.0000
   5569 H         167.0565  101.5582   61.7566 H       795      M_A    0.0000
   5570 H         168.0100  103.0467   61.6751 H       795      M_A    0.0000
   5571 H         169.7549  101.6024   61.6324 H       795      M_A    0.0000
   5572 H         169.4309  101.5474   59.8771 H       795      M_A    0.0000
   5573 C         169.7872   99.2220   61.5185 C.3     796      M_A    0.0000
   5574 C         170.9829   99.1556   60.5765 C.3     796      M_A    0.0000
   5575 O         171.0572   97.8425   60.0234 O.3     796      M_A    0.0000
   5576 H         169.4518   98.2105   61.7741 H       796      M_A    0.0000
   5577 H         170.0909   99.7166   62.4481 H       796      M_A    0.0000
   5578 H         171.8889   99.3681   61.1613 H       796      M_A    0.0000
   5579 H         170.9002   99.8986   59.7720 H       796      M_A    0.0000
   5580 C         172.1940   97.7124   59.1968 C.3     797      M_A    0.0000
   5581 C         171.8351   97.4216   57.7449 C.3     797      M_A    0.0000
   5582 O         172.7525   96.4572   57.2310 O.3     797      M_A    0.0000
   5583 H         172.8326   96.9152   59.5942 H       797      M_A    0.0000
   5584 H         172.7618   98.6485   59.2446 H       797      M_A    0.0000
   5585 H         171.9209   98.3598   57.1788 H       797      M_A    0.0000
   5586 H         170.8063   97.0480   57.6541 H       797      M_A    0.0000
   5587 C         173.0354   96.7118   55.8717 C.3     798      M_A    0.0000
   5588 C         171.7866   97.0395   55.0626 C.3     798      M_A    0.0000
   5589 O         171.7132   96.1462   53.9524 O.3     798      M_A    0.0000
   5590 H         173.5428   95.8390   55.4452 H       798      M_A    0.0000
   5591 H         173.7288   97.5587   55.8184 H       798      M_A    0.0000
   5592 H         171.8746   98.0752   54.7055 H       798      M_A    0.0000
   5593 H         170.8791   96.9538   55.6752 H       798      M_A    0.0000
   5594 C         170.3842   96.0316   53.4907 C.3     799      M_A    0.0000
   5595 C         170.1873   96.6420   52.1086 C.3     799      M_A    0.0000
   5596 O         168.8561   97.1471   52.0169 O.3     799      M_A    0.0000
   5597 H         169.7146   96.5114   54.2136 H       799      M_A    0.0000
   5598 H         170.1249   94.9676   53.4523 H       799      M_A    0.0000
   5599 H         170.3403   95.8500   51.3621 H       799      M_A    0.0000
   5600 H         170.9093   97.4479   51.9206 H       799      M_A    0.0000
   5601 C         168.5140   97.4121   50.6732 C.3     800      M_A    0.0000
   5602 C         167.3666   98.4062   50.5437 C.3     800      M_A    0.0000
   5603 O         166.1339   97.6882   50.5712 O.3     800      M_A    0.0000
   5604 H         168.2529   96.4686   50.1807 H       800      M_A    0.0000
   5605 H         169.3978   97.8177   50.1679 H       800      M_A    0.0000
   5606 H         167.4755   98.9279   49.5825 H       800      M_A    0.0000
   5607 H         167.3876   99.1490   51.3524 H       800      M_A    0.0000
   5608 C         165.4761   97.8727   51.8065 C.3     801      M_A    0.0000
   5609 C         164.0921   97.2362   51.8363 C.3     801      M_A    0.0000
   5610 O         163.2484   98.0150   52.6833 O.3     801      M_A    0.0000
   5611 H         165.4017   98.9465   52.0121 H       801      M_A    0.0000
   5612 H         166.0930   97.4250   52.5939 H       801      M_A    0.0000
   5613 H         164.1940   96.2194   52.2409 H       801      M_A    0.0000
   5614 H         163.6589   97.1730   50.8291 H       801      M_A    0.0000
   5615 C         162.1223   97.2674   53.0902 C.3     802      M_A    0.0000
   5616 C         160.9979   97.2916   52.0622 C.3     802      M_A    0.0000
   5617 O         159.7811   96.9169   52.7062 O.3     802      M_A    0.0000
   5618 H         161.7646   97.6583   54.0495 H       802      M_A    0.0000
   5619 H         162.4386   96.2305   53.2504 H       802      M_A    0.0000
   5620 H         161.2431   96.5671   51.2729 H       802      M_A    0.0000
   5621 H         160.8925   98.2858   51.6078 H       802      M_A    0.0000
   5622 C         158.9036   96.2945   51.7923 C.3     803      M_A    0.0000
   5623 C         157.4680   96.7868   51.9274 C.3     803      M_A    0.0000
   5624 O         156.6926   95.7688   52.5585 O.3     803      M_A    0.0000
   5625 H         158.9459   95.2097   51.9423 H       803      M_A    0.0000
   5626 H         159.2600   96.5042   50.7775 H       803      M_A    0.0000
   5627 H         157.0793   96.9829   50.9182 H       803      M_A    0.0000
   5628 H         157.4167   97.7154   52.5115 H       803      M_A    0.0000
   5629 C         155.3223   95.9270   52.2590 C.3     804      M_A    0.0000
   5630 C         154.7082   97.1435   52.9405 C.3     804      M_A    0.0000
   5631 O         153.3471   96.8531   53.2554 O.3     804      M_A    0.0000
   5632 H         154.7868   95.0180   52.5560 H       804      M_A    0.0000
   5633 H         155.2186   96.0345   51.1734 H       804      M_A    0.0000
   5634 H         154.7589   97.9881   52.2391 H       804      M_A    0.0000
   5635 H         155.2570   97.4101   53.8536 H       804      M_A    0.0000
   5636 C         152.6204   98.0433   53.4744 C.3     805      M_A    0.0000
   5637 C         151.6376   97.9273   54.6329 C.3     805      M_A    0.0000
   5638 O         150.5705   98.8505   54.4219 O.3     805      M_A    0.0000
   5639 H         152.0884   98.3088   52.5538 H       805      M_A    0.0000
   5640 H         153.3343   98.8464   53.6896 H       805      M_A    0.0000
   5641 H         152.1730   98.1781   55.5595 H       805      M_A    0.0000
   5642 H         151.2407   96.9070   54.7203 H       805      M_A    0.0000
   5643 C         149.3324   98.2722   54.7759 C.3     806      M_A    0.0000
   5644 C         148.1875   98.7452   53.8888 C.3     806      M_A    0.0000
   5645 O         147.0717   97.8767   54.0799 O.3     806      M_A    0.0000
   5646 H         149.1183   98.5064   55.8249 H       806      M_A    0.0000
   5647 H         149.4254   97.1836   54.6903 H       806      M_A    0.0000
   5648 H         148.5249   98.6980   52.8439 H       806      M_A    0.0000
   5649 H         147.9028   99.7802   54.1209 H       806      M_A    0.0000
   5650 C         145.9138   98.4106   53.4743 C.3     807      M_A    0.0000
   5651 C         145.0567   97.3448   52.8030 C.3     807      M_A    0.0000
   5652 O         144.0604   97.9904   52.0115 O.3     807      M_A    0.0000
   5653 H         146.2137   99.1694   52.7426 H       807      M_A    0.0000
   5654 H         145.3214   98.9110   54.2486 H       807      M_A    0.0000
   5655 H         144.5794   96.7458   53.5913 H       807      M_A    0.0000
   5656 H         145.6643   96.6801   52.1744 H       807      M_A    0.0000
   5657 C         143.8633   99.3196   52.4436 C.3     808      M_A    0.0000
   5658 C         142.4045   99.7526   52.3669 C.3     808      M_A    0.0000
   5659 O         142.3100  100.8934   51.5152 O.3     808      M_A    0.0000
   5660 H         144.4869   99.9862   51.8371 H       808      M_A    0.0000
   5661 H         144.2056   99.3971   53.4818 H       808      M_A    0.0000
   5662 H         142.0734  100.0137   53.3819 H       808      M_A    0.0000
   5663 H         141.7667   98.9441   51.9851 H       808      M_A    0.0000
   5664 C         141.0614  101.5327   51.6736 C.3     809      M_A    0.0000
   5665 C         139.8888  100.5648   51.5764 C.3     809      M_A    0.0000
   5666 O         138.9829  101.0418   50.5826 O.3     809      M_A    0.0000
   5667 H         140.9661  102.3180   50.9151 H       809      M_A    0.0000
   5668 H         141.0459  102.0163   52.6569 H       809      M_A    0.0000
   5669 H         139.3901  100.5353   52.5554 H       809      M_A    0.0000
   5670 H         140.2266   99.5512   51.3221 H       809      M_A    0.0000
   5671 C         138.1454  100.0000   50.1290 C.3     810      M_A    0.0000
   5672 C         136.6849  100.2127   50.5076 C.3     810      M_A    0.0000
   5673 O         135.9565   99.0231   50.2072 O.3     810      M_A    0.0000
   5674 H         138.5067   99.0501   50.5391 H       810      M_A    0.0000
   5675 H         138.2278   99.9441   49.0377 H       810      M_A    0.0000
   5676 H         136.2974  101.0505   49.9110 H       810      M_A    0.0000
   5677 H         136.5795  100.4597   51.5724 H       810      M_A    0.0000
   5678 C         136.5878   98.2986   49.1732 C.3     811      M_A    0.0000
   5679 C         135.6193   97.8755   48.0758 C.3     811      M_A    0.0000
   5680 O         135.0693   96.6037   48.4163 O.3     811      M_A    0.0000
   5681 H         137.0772   97.4179   49.6044 H       811      M_A    0.0000
   5682 H         137.3680   98.9326   48.7370 H       811      M_A    0.0000
   5683 H         136.1827   97.8008   47.1351 H       811      M_A    0.0000
   5684 H         134.8142   98.6113   47.9470 H       811      M_A    0.0000
   5685 C         133.9666   96.7528   49.2849 C.3     812      M_A    0.0000
   5686 C         132.6695   96.2256   48.6842 C.3     812      M_A    0.0000
   5687 O         131.7324   97.2987   48.6055 O.3     812      M_A    0.0000
   5688 H         133.8592   97.8124   49.5434 H       812      M_A    0.0000
   5689 H         134.1816   96.2050   50.2093 H       812      M_A    0.0000
   5690 H         132.2833   95.4382   49.3465 H       812      M_A    0.0000
   5691 H         132.8356   95.7972   47.6867 H       812      M_A    0.0000
   5692 C         130.8198   97.0882   47.5492 C.3     813      M_A    0.0000
   5693 C         129.3938   96.8694   48.0391 C.3     813      M_A    0.0000
   5694 O         128.6962   96.0785   47.0781 O.3     813      M_A    0.0000
   5695 H         131.1523   96.2265   46.9593 H       813      M_A    0.0000
   5696 H         130.8428   97.9677   46.8957 H       813      M_A    0.0000
   5697 H         128.9127   97.8528   48.1359 H       813      M_A    0.0000
   5698 H         129.3790   96.3718   49.0180 H       813      M_A    0.0000
   5699 C         127.3732   95.8289   47.5025 C.3     814      M_A    0.0000
   5700 C         126.8326   94.4994   46.9911 C.3     814      M_A    0.0000
   5701 O         125.5078   94.7020   46.5015 O.3     814      M_A    0.0000
   5702 H         126.7315   96.6513   47.1664 H       814      M_A    0.0000
   5703 H         127.3599   95.8230   48.5983 H       814      M_A    0.0000
   5704 H         126.8176   93.7921   47.8322 H       814      M_A    0.0000
   5705 H         127.4688   94.0881   46.1960 H       814      M_A    0.0000
   5706 C         124.7033   93.5702   46.7549 C.3     815      M_A    0.0000
   5707 C         123.6334   93.3592   45.6908 C.3     815      M_A    0.0000
   5708 O         122.3716   93.1960   46.3366 O.3     815      M_A    0.0000
   5709 H         124.2379   93.6791   47.7412 H       815      M_A    0.0000
   5710 H         125.3529   92.6882   46.7891 H       815      M_A    0.0000
   5711 H         123.8874   92.4496   45.1287 H       815      M_A    0.0000
   5712 H         123.5917   94.2054   44.9920 H       815      M_A    0.0000
   5713 C         121.5174   92.3794   45.5646 C.3     816      M_A    0.0000
   5714 C         120.1546   93.0166   45.3234 C.3     816      M_A    0.0000
   5715 O         119.1801   91.9813   45.2037 O.3     816      M_A    0.0000
   5716 H         121.3982   91.4137   46.0690 H       816      M_A    0.0000
   5717 H         122.0013   92.1930   44.5992 H       816      M_A    0.0000
   5718 H         120.2085   93.5910   44.3879 H       816      M_A    0.0000
   5719 H         119.8813   93.6980   46.1402 H       816      M_A    0.0000
   5720 C         118.8770   91.4322   46.4683 C.3     817      M_A    0.0000
   5721 C         117.9432   90.2315   46.3793 C.3     817      M_A    0.0000
   5722 O         116.5976   90.6877   46.5099 O.3     817      M_A    0.0000
   5723 H         118.4301   92.2117   47.0958 H       817      M_A    0.0000
   5724 H         119.8154   91.1216   46.9413 H       817      M_A    0.0000
   5725 H         118.1891   89.5476   47.2038 H       817      M_A    0.0000
   5726 H         118.0687   89.6967   45.4284 H       817      M_A    0.0000
   5727 C         115.7585   89.6456   46.9600 C.3     818      M_A    0.0000
   5728 C         115.8682   88.3907   46.1028 C.3     818      M_A    0.0000
   5729 O         114.5736   87.8027   45.9847 O.3     818      M_A    0.0000
   5730 H         114.7230   90.0041   46.9728 H       818      M_A    0.0000
   5731 H         116.0386   89.4006   47.9907 H       818      M_A    0.0000
   5732 H         116.5523   87.6934   46.6066 H       818      M_A    0.0000
   5733 H         116.2695   88.6203   45.1067 H       818      M_A    0.0000
   5734 C         114.6739   86.4059   45.8067 C.3     819      M_A    0.0000
   5735 C         115.4580   86.0274   44.5564 C.3     819      M_A    0.0000
   5736 O         115.3777   84.6142   44.3763 O.3     819      M_A    0.0000
   5737 H         113.6649   85.9804   45.7623 H       819      M_A    0.0000
   5738 H         115.1748   85.9833   46.6850 H       819      M_A    0.0000
   5739 H         116.5045   86.3273   44.7074 H       819      M_A    0.0000
   5740 H         115.0683   86.5426   43.6683 H       819      M_A    0.0000
   5741 C         114.1071   84.2450   43.8845 C.3     820      M_A    0.0000
   5742 C         113.4259   83.1909   44.7484 C.3     820      M_A    0.0000
   5743 O         113.8738   81.9009   44.3346 O.3     820      M_A    0.0000
   5744 H         114.2169   83.8776   42.8578 H       820      M_A    0.0000
   5745 H         113.4781   85.1418   43.8515 H       820      M_A    0.0000
   5746 H         112.3406   83.2772   44.5979 H       820      M_A    0.0000
   5747 H         113.6472   83.3423   45.8134 H       820      M_A    0.0000
   5748 C         115.1778   81.6481   44.8124 C.3     821      M_A    0.0000
   5749 C         115.3765   80.1995   45.2406 C.3     821      M_A    0.0000
   5750 O         116.2704   80.1694   46.3523 O.3     821      M_A    0.0000
   5751 H         115.3850   82.3213   45.6520 H       821      M_A    0.0000
   5752 H         115.8882   81.8855   44.0124 H       821      M_A    0.0000
   5753 H         115.8125   79.6512   44.3937 H       821      M_A    0.0000
   5754 H         114.4225   79.7280   45.5121 H       821      M_A    0.0000
   5755 C         116.2940   78.8860   46.9396 C.3     822      M_A    0.0000
   5756 C         114.9850   78.5336   47.6350 C.3     822      M_A    0.0000
   5757 O         114.9948   77.1422   47.9508 O.3     822      M_A    0.0000
   5758 H         117.1249   78.8372   47.6526 H       822      M_A    0.0000
   5759 H         116.4892   78.1512   46.1504 H       822      M_A    0.0000
   5760 H         114.1612   78.7551   46.9420 H       822      M_A    0.0000
   5761 H         114.8455   79.1259   48.5493 H       822      M_A    0.0000
   5762 C         115.6905   76.4110   46.9638 C.3     823      M_A    0.0000
   5763 C         114.7575   75.6703   46.0140 C.3     823      M_A    0.0000
   5764 O         114.7024   74.2988   46.4036 O.3     823      M_A    0.0000
   5765 H         116.3663   75.7030   47.4570 H       823      M_A    0.0000
   5766 H         116.3054   77.1116   46.3876 H       823      M_A    0.0000
   5767 H         115.1685   75.7554   44.9982 H       823      M_A    0.0000
   5768 H         113.7490   76.1050   46.0237 H       823      M_A    0.0000
   5769 C         113.6207   73.6444   45.7758 C.3     824      M_A    0.0000
   5770 C         112.3347   73.7214   46.5894 C.3     824      M_A    0.0000
   5771 O         111.5565   72.5547   46.3265 O.3     824      M_A    0.0000
   5772 H         113.8931   72.5976   45.5993 H       824      M_A    0.0000
   5773 H         113.4553   74.1143   44.7997 H       824      M_A    0.0000
   5774 H         111.7847   74.6185   46.2722 H       824      M_A    0.0000
   5775 H         112.5454   73.7988   47.6644 H       824      M_A    0.0000
   5776 C         110.1998   72.7767   46.6474 C.3     825      M_A    0.0000
   5777 C         109.5936   71.6382   47.4584 C.3     825      M_A    0.0000
   5778 O         108.2407   71.4520   47.0453 O.3     825      M_A    0.0000
   5779 H         109.6347   72.9213   45.7196 H       825      M_A    0.0000
   5780 H         110.1317   73.7045   47.2265 H       825      M_A    0.0000
   5781 H         109.6261   71.9217   48.5197 H       825      M_A    0.0000
   5782 H         110.1594   70.7064   47.3249 H       825      M_A    0.0000
   5783 C         107.5266   70.6962   48.0000 C.3     826      M_A    0.0000
   5784 C         107.4455   69.2183   47.6386 C.3     826      M_A    0.0000
   5785 O         106.0717   68.8411   47.5598 O.3     826      M_A    0.0000
   5786 H         106.5191   71.1150   48.1028 H       826      M_A    0.0000
   5787 H         108.0308   70.8011   48.9673 H       826      M_A    0.0000
   5788 H         107.9466   68.6461   48.4321 H       826      M_A    0.0000
   5789 H         107.9479   69.0116   46.6841 H       826      M_A    0.0000
   5790 C         105.9288   67.4436   47.6981 C.3     827      M_A    0.0000
   5791 C         106.0223   66.7085   46.3669 C.3     827      M_A    0.0000
   5792 O         105.1875   65.5527   46.4228 O.3     827      M_A    0.0000
   5793 H         104.9674   67.2311   48.1795 H       827      M_A    0.0000
   5794 H         106.7211   67.0819   48.3632 H       827      M_A    0.0000
   5795 H         107.0689   66.4083   46.2169 H       827      M_A    0.0000
   5796 H         105.7173   67.3529   45.5316 H       827      M_A    0.0000
   5797 C         103.8552   65.8826   46.0929 C.3     828      M_A    0.0000
   5798 C         102.8828   64.7412   46.3630 C.3     828      M_A    0.0000
   5799 O         102.4730   64.1842   45.1149 O.3     828      M_A    0.0000
   5800 H         103.8124   66.1726   45.0369 H       828      M_A    0.0000
   5801 H         103.5597   66.7532   46.6892 H       828      M_A    0.0000
   5802 H         102.0130   65.1536   46.8933 H       828      M_A    0.0000
   5803 H         103.3416   63.9643   46.9891 H       828      M_A    0.0000
   5804 C         101.7716   62.9754   45.3137 C.3     829      M_A    0.0000
   5805 C         102.6657   61.8550   45.8300 C.3     829      M_A    0.0000
   5806 O         101.9203   60.6383   45.8306 O.3     829      M_A    0.0000
   5807 H         101.3018   62.6782   44.3692 H       829      M_A    0.0000
   5808 H         100.9717   63.1585   46.0400 H       829      M_A    0.0000
   5809 H         102.9711   62.1083   46.8549 H       829      M_A    0.0000
   5810 H         103.5661   61.7442   45.2110 H       829      M_A    0.0000
   5811 C         100.5581   60.8871   45.5565 C.3     830      M_A    0.0000
   5812 C          99.6227   60.0263   46.3965 C.3     830      M_A    0.0000
   5813 O          98.6712   59.4070   45.5322 O.3     830      M_A    0.0000
   5814 H         100.3734   60.7146   44.4901 H       830      M_A    0.0000
   5815 H         100.3541   61.9438   45.7628 H       830      M_A    0.0000
   5816 H          99.1079   60.6824   47.1124 H       830      M_A    0.0000
   5817 H         100.1773   59.2609   46.9556 H       830      M_A    0.0000
   5818 C          97.7217   58.6752   46.2776 C.3     831      M_A    0.0000
   5819 C          97.8345   57.1716   46.0583 C.3     831      M_A    0.0000
   5820 O          96.5419   56.5881   46.2154 O.3     831      M_A    0.0000
   5821 H          96.7169   59.0210   46.0094 H       831      M_A    0.0000
   5822 H          97.8766   58.8946   47.3400 H       831      M_A    0.0000
   5823 H          98.5225   56.7683   46.8146 H       831      M_A    0.0000
   5824 H          98.2326   56.9414   45.0610 H       831      M_A    0.0000
   5825 C          96.6480   55.2479   46.6457 C.3     832      M_A    0.0000
   5826 C          96.0502   54.2617   45.6501 C.3     832      M_A    0.0000
   5827 O          95.2434   53.3248   46.3623 O.3     832      M_A    0.0000
   5828 H          96.1541   55.1474   47.6189 H       832      M_A    0.0000
   5829 H          97.7098   55.0157   46.7860 H       832      M_A    0.0000
   5830 H          96.8778   53.7398   45.1495 H       832      M_A    0.0000
   5831 H          95.4470   54.7763   44.8902 H       832      M_A    0.0000
   5832 C          94.7184   52.3504   45.4862 C.3     833      M_A    0.0000
   5833 C          93.5020   51.6363   46.0621 C.3     833      M_A    0.0000
   5834 O          93.4740   50.3015   45.5587 O.3     833      M_A    0.0000
   5835 H          95.5050   51.6246   45.2502 H       833      M_A    0.0000
   5836 H          94.4329   52.8471   44.5521 H       833      M_A    0.0000
   5837 H          92.6033   52.1788   45.7366 H       833      M_A    0.0000
   5838 H          93.5279   51.6238   47.1600 H       833      M_A    0.0000
   5839 C          92.1444   49.8499   45.4144 C.3     834      M_A    0.0000
   5840 C          91.7328   48.8742   46.5098 C.3     834      M_A    0.0000
   5841 O          91.0135   47.7951   45.9148 O.3     834      M_A    0.0000
   5842 H          92.0338   49.3806   44.4303 H       834      M_A    0.0000
   5843 H          91.4810   50.7217   45.4438 H       834      M_A    0.0000
   5844 H          91.0859   49.4109   47.2180 H       834      M_A    0.0000
   5845 H          92.6068   48.4898   47.0525 H       834      M_A    0.0000
   5846 C          90.3929   47.0027   46.9045 C.3     835      M_A    0.0000
   5847 C          91.3550   46.5794   48.0075 C.3     835      M_A    0.0000
   5848 O          90.6626   45.7233   48.9150 O.3     835      M_A    0.0000
   5849 H          89.9534   46.1191   46.4278 H       835      M_A    0.0000
   5850 H          89.5754   47.5837   47.3462 H       835      M_A    0.0000
   5851 H          91.6931   47.4852   48.5302 H       835      M_A    0.0000
   5852 H          92.2320   46.0615   47.5965 H       835      M_A    0.0000
   5853 C          89.3173   46.1272   49.0547 C.3     836      M_A    0.0000
   5854 C          88.7169   45.7189   50.3941 C.3     836      M_A    0.0000
   5855 O          87.9907   44.5033   50.2185 O.3     836      M_A    0.0000
   5856 H          88.7313   45.7002   48.2329 H       836      M_A    0.0000
   5857 H          89.2753   47.2183   48.9613 H       836      M_A    0.0000
   5858 H          88.0367   46.5184   50.7199 H       836      M_A    0.0000
   5859 H          89.4951   45.5853   51.1574 H       836      M_A    0.0000
   5860 C          86.9934   44.3698   51.2086 C.3     837      M_A    0.0000
   5861 C          86.9669   42.9801   51.8327 C.3     837      M_A    0.0000
   5862 O          85.9092   42.2309   51.2364 O.3     837      M_A    0.0000
   5863 H          86.0189   44.6024   50.7644 H       837      M_A    0.0000
   5864 H          87.1871   45.1106   51.9925 H       837      M_A    0.0000
   5865 H          86.7841   43.0947   52.9104 H       837      M_A    0.0000
   5866 H          87.9233   42.4594   51.6908 H       837      M_A    0.0000
   5867 C          85.4607   41.2172   52.1105 C.3     838      M_A    0.0000
   5868 C          85.8689   39.8227   51.6521 C.3     838      M_A    0.0000
   5869 O          84.7887   39.2480   50.9180 O.3     838      M_A    0.0000
   5870 H          84.3702   41.2812   52.1984 H       838      M_A    0.0000
   5871 H          85.8862   41.4067   53.1024 H       838      M_A    0.0000
   5872 H          86.0783   39.2185   52.5460 H       838      M_A    0.0000
   5873 H          86.7724   39.8548   51.0287 H       838      M_A    0.0000
   5874 C          84.7860   37.8427   51.0516 C.3     839      M_A    0.0000
   5875 C          86.0566   37.1984   50.5114 C.3     839      M_A    0.0000
   5876 O          85.7237   36.4261   49.3587 O.3     839      M_A    0.0000
   5877 H          83.9088   37.4386   50.5337 H       839      M_A    0.0000
   5878 H          84.6857   37.5994   52.1154 H       839      M_A    0.0000
   5879 H          86.4665   36.5455   51.2947 H       839      M_A    0.0000
   5880 H          86.8100   37.9545   50.2528 H       839      M_A    0.0000
   5881 C          86.5912   35.3198   49.2312 C.3     840      M_A    0.0000
   5882 C          88.0379   35.6662   49.5605 C.3     840      M_A    0.0000
   5883 O          88.8938   34.7444   48.8871 O.3     840      M_A    0.0000
   5884 H          86.5201   34.9290   48.2097 H       840      M_A    0.0000
   5885 H          86.2472   34.5338   49.9129 H       840      M_A    0.0000
   5886 H          88.1704   35.5755   50.6478 H       840      M_A    0.0000
   5887 H          88.2816   36.6941   49.2602 H       840      M_A    0.0000
   5888 C          88.2182   33.5318   48.6302 C.3     841      M_A    0.0000
   5889 C          88.7242   32.3826   49.4931 C.3     841      M_A    0.0000
   5890 O          89.3592   31.4225   48.6500 O.3     841      M_A    0.0000
   5891 H          88.3274   33.2827   47.5686 H       841      M_A    0.0000
   5892 H          87.1513   33.6851   48.8279 H       841      M_A    0.0000
   5893 H          87.8588   31.9272   49.9947 H       841      M_A    0.0000
   5894 H          89.4288   32.7364   50.2577 H       841      M_A    0.0000
   5895 C          89.5420   30.2010   49.3336 C.3     842      M_A    0.0000
   5896 C          90.6973   30.2497   50.3257 C.3     842      M_A    0.0000
   5897 O          91.0249   28.9159   50.7124 O.3     842      M_A    0.0000
   5898 H          89.7089   29.4049   48.5992 H       842      M_A    0.0000
   5899 H          88.6168   29.9678   49.8727 H       842      M_A    0.0000
   5900 H          90.3684   30.8245   51.2029 H       842      M_A    0.0000
   5901 H          91.5774   30.7424   49.8912 H       842      M_A    0.0000
   5902 C          90.1483   27.9906   50.1057 C.3     843      M_A    0.0000
   5903 C          89.9487   26.7337   50.9434 C.3     843      M_A    0.0000
   5904 O          90.4489   25.6138   50.2145 O.3     843      M_A    0.0000
   5905 H          90.5400   27.7264   49.1169 H       843      M_A    0.0000
   5906 H          89.1793   28.4810   49.9596 H       843      M_A    0.0000
   5907 H          88.8713   26.6128   51.1240 H       843      M_A    0.0000
   5908 H          90.4617   26.8122   51.9113 H       843      M_A    0.0000
   5909 C          90.8367   24.5790   51.0928 C.3     844      M_A    0.0000
   5910 C          90.1742   23.2475   50.7616 C.3     844      M_A    0.0000
   5911 O          89.8092   22.6023   51.9808 O.3     844      M_A    0.0000
   5912 H          90.5944   24.8756   52.1197 H       844      M_A    0.0000
   5913 H          91.9245   24.4635   51.0278 H       844      M_A    0.0000
   5914 H          90.9022   22.6320   50.2148 H       844      M_A    0.0000
   5915 H          89.2868   23.3883   50.1301 H       844      M_A    0.0000
   5916 C          88.6053   21.8821   51.8236 C.3     845      M_A    0.0000
   5917 C          88.6560   20.5038   52.4710 C.3     845      M_A    0.0000
   5918 O          87.5386   19.7427   52.0150 O.3     845      M_A    0.0000
   5919 H          88.3847   21.7885   50.7542 H       845      M_A    0.0000
   5920 H          87.7960   22.4628   52.2807 H       845      M_A    0.0000
   5921 H          88.5992   20.6375   53.5605 H       845      M_A    0.0000
   5922 H          89.5911   19.9818   52.2281 H       845      M_A    0.0000
   5923 C          87.7417   19.3028   50.6892 C.3     846      M_A    0.0000
   5924 C          86.4635   19.3247   49.8601 C.3     846      M_A    0.0000
   5925 O          85.7598   18.1016   50.0719 O.3     846      M_A    0.0000
   5926 H          88.1594   18.2898   50.7114 H       846      M_A    0.0000
   5927 H          88.4839   19.9585   50.2201 H       846      M_A    0.0000
   5928 H          86.7460   19.4165   48.8020 H       846      M_A    0.0000
   5929 H          85.8260   20.1772   50.1301 H       846      M_A    0.0000
   5930 C          84.4294   18.2048   49.6114 C.3     847      M_A    0.0000
   5931 C          83.5015   18.8480   50.6345 C.3     847      M_A    0.0000
   5932 O          82.1795   18.3525   50.4284 O.3     847      M_A    0.0000
   5933 H          84.0661   17.2047   49.3490 H       847      M_A    0.0000
   5934 H          84.4287   18.8095   48.6975 H       847      M_A    0.0000
   5935 H          83.5232   19.9356   50.4770 H       847      M_A    0.0000
   5936 H          83.8278   18.6339   51.6610 H       847      M_A    0.0000
   5937 C          81.9958   17.1250   51.1008 C.3     848      M_A    0.0000
   5938 C          81.3452   16.0645   50.2213 C.3     848      M_A    0.0000
   5939 O          80.4247   15.3151   51.0131 O.3     848      M_A    0.0000
   5940 H          81.3871   17.2980   51.9956 H       848      M_A    0.0000
   5941 H          82.9767   16.7642   51.4303 H       848      M_A    0.0000
   5942 H          82.1377   15.4042   49.8419 H       848      M_A    0.0000
   5943 H          80.8247   16.5175   49.3669 H       848      M_A    0.0000
   5944 C          80.0517   14.1246   50.3526 C.3     849      M_A    0.0000
   5945 C          78.5435   13.9974   50.1772 C.3     849      M_A    0.0000
   5946 O          78.2125   12.6153   50.0513 O.3     849      M_A    0.0000
   5947 H          80.4391   13.2690   50.9174 H       849      M_A    0.0000
   5948 H          80.5288   14.1157   49.3661 H       849      M_A    0.0000
   5949 H          78.2610   14.5358   49.2616 H       849      M_A    0.0000
   5950 H          78.0034   14.4379   51.0260 H       849      M_A    0.0000
   5951 C          76.9481   12.4580   49.4436 C.3     850      M_A    0.0000
   5952 C          76.0164   11.5607   50.2488 C.3     850      M_A    0.0000
   5953 O          75.3431   10.6783   49.3521 O.3     850      M_A    0.0000
   5954 H          77.0868   12.0501   48.4359 H       850      M_A    0.0000
   5955 H          76.4910   13.4487   49.3415 H       850      M_A    0.0000
   5956 H          75.2866   12.2019   50.7626 H       850      M_A    0.0000
   5957 H          76.5692   10.9826   51.0013 H       850      M_A    0.0000
   5958 C          75.0147    9.4662   49.9969 C.3     851      M_A    0.0000
   5959 C          73.9733    8.6576   49.2333 C.3     851      M_A    0.0000
   5960 O          73.8441    7.3781   49.8515 O.3     851      M_A    0.0000
   5961 H          74.6530    9.6884   51.0073 H       851      M_A    0.0000
   5962 H          75.9294    8.8707   50.0943 H       851      M_A    0.0000
   5963 H          74.3252    8.5405   48.1987 H       851      M_A    0.0000
   5964 H          73.0013    9.1686   49.2194 H       851      M_A    0.0000
   5965 C          74.5394    6.3951   49.1147 C.3     852      M_A    0.0000
   5966 C          75.9391    6.1343   49.6570 C.3     852      M_A    0.0000
   5967 O          76.7810    7.2281   49.2956 O.3     852      M_A    0.0000
   5968 H          74.5938    6.7097   48.0663 H       852      M_A    0.0000
   5969 H          73.9614    5.4648   49.1533 H       852      M_A    0.0000
   5970 H          76.3131    5.2066   49.2015 H       852      M_A    0.0000
   5971 H          75.9290    6.0119   50.7484 H       852      M_A    0.0000
   5972 C          78.1405    6.8911   49.4713 C.3     853      M_A    0.0000
   5973 C          78.9363    7.9957   50.1555 C.3     853      M_A    0.0000
   5974 O          79.7168    8.6736   49.1721 O.3     853      M_A    0.0000
   5975 H          78.5785    6.6612   48.4934 H       853      M_A    0.0000
   5976 H          78.1926    5.9822   50.0812 H       853      M_A    0.0000
   5977 H          79.5953    7.5286   50.9007 H       853      M_A    0.0000
   5978 H          78.2746    8.7076   50.6669 H       853      M_A    0.0000
   5979 C          78.9057    9.5237   48.3897 C.3     854      M_A    0.0000
   5980 C          79.7173   10.4307   47.4732 C.3     854      M_A    0.0000
   5981 O          80.3137   11.4608   48.2600 O.3     854      M_A    0.0000
   5982 H          78.2769   10.1257   49.0555 H       854      M_A    0.0000
   5983 H          78.2427    8.8996   47.7800 H       854      M_A    0.0000
   5984 H          79.0312   10.8714   46.7362 H       854      M_A    0.0000
   5985 H          80.4943    9.8678   46.9389 H       854      M_A    0.0000
   5986 C          81.4088   10.9572   48.9948 C.3     855      M_A    0.0000
   5987 C          82.1998   12.0539   49.6969 C.3     855      M_A    0.0000
   5988 O          82.6644   11.5526   50.9494 O.3     855      M_A    0.0000
   5989 H          82.0623   10.3954   48.3177 H       855      M_A    0.0000
   5990 H          81.0253   10.2562   49.7448 H       855      M_A    0.0000
   5991 H          81.5266   12.9071   49.8608 H       855      M_A    0.0000
   5992 H          83.0497   12.3876   49.0867 H       855      M_A    0.0000
   5993 C          81.7741   11.9011   51.9880 C.3     856      M_A    0.0000
   5994 C          81.5947   13.4077   52.1276 C.3     856      M_A    0.0000
   5995 O          82.3061   13.8481   53.2833 O.3     856      M_A    0.0000
   5996 H          82.1426   11.4765   52.9288 H       856      M_A    0.0000
   5997 H          80.8018   11.4430   51.7745 H       856      M_A    0.0000
   5998 H          80.5215   13.6127   52.2469 H       856      M_A    0.0000
   5999 H          81.9580   13.9381   51.2373 H       856      M_A    0.0000
   6000 C          81.8815   15.1377   53.6698 C.3     857      M_A    0.0000
   6001 C          82.6630   16.2464   52.9760 C.3     857      M_A    0.0000
   6002 O          82.6295   17.4127   53.7973 O.3     857      M_A    0.0000
   6003 H          81.9779   15.2320   54.7574 H       857      M_A    0.0000
   6004 H          80.8192   15.2383   53.4199 H       857      M_A    0.0000
   6005 H          82.1777   16.4526   52.0117 H       857      M_A    0.0000
   6006 H          83.7031   15.9469   52.7903 H       857      M_A    0.0000
   6007 C          81.4501   18.1530   53.5653 C.3     858      M_A    0.0000
   6008 C          80.2721   17.6573   54.3948 C.3     858      M_A    0.0000
   6009 O          79.1504   17.4735   53.5324 O.3     858      M_A    0.0000
   6010 H          81.2059   18.1063   52.4980 H       858      M_A    0.0000
   6011 H          81.6484   19.2013   53.8158 H       858      M_A    0.0000
   6012 H          80.0429   18.4215   55.1507 H       858      M_A    0.0000
   6013 H          80.5114   16.7157   54.9069 H       858      M_A    0.0000
   6014 C          79.1742   18.4093   52.4758 C.3     859      M_A    0.0000
   6015 C          77.8755   19.1975   52.3594 C.3     859      M_A    0.0000
   6016 O          77.9638   20.0601   51.2262 O.3     859      M_A    0.0000
   6017 H          79.3799   17.8808   51.5381 H       859      M_A    0.0000
   6018 H          80.0012   19.1061   52.6533 H       859      M_A    0.0000
   6019 H          77.7556   19.7928   53.2755 H       859      M_A    0.0000
   6020 H          77.0098   18.5296   52.2572 H       859      M_A    0.0000
   6021 C          77.2917   21.2770   51.4713 C.3     860      M_A    0.0000
   6022 C          77.1775   22.1468   50.2256 C.3     860      M_A    0.0000
   6023 O          77.0624   23.5106   50.6288 O.3     860      M_A    0.0000
   6024 H          77.8190   21.8204   52.2636 H       860      M_A    0.0000
   6025 H          76.2859   21.0452   51.8395 H       860      M_A    0.0000
   6026 H          76.2752   21.8401   49.6781 H       860      M_A    0.0000
   6027 H          78.0484   22.0209   49.5685 H       860      M_A    0.0000
   6028 C          77.9063   24.3338   49.8524 C.3     861      M_A    0.0000
   6029 C          79.3845   24.0647   50.1049 C.3     861      M_A    0.0000
   6030 O          80.1238   25.2455   49.7964 O.3     861      M_A    0.0000
   6031 H          77.6723   25.3831   50.0653 H       861      M_A    0.0000
   6032 H          77.6848   24.1515   48.7947 H       861      M_A    0.0000
   6033 H          79.6981   23.2430   49.4459 H       861      M_A    0.0000
   6034 H          79.5652   23.7693   51.1471 H       861      M_A    0.0000
   6035 C          79.2542   26.3345   49.5711 C.3     862      M_A    0.0000
   6036 C          79.8089   27.3302   48.5599 C.3     862      M_A    0.0000
   6037 O          80.1206   28.5459   49.2387 O.3     862      M_A    0.0000
   6038 H          79.0586   26.8359   50.5257 H       862      M_A    0.0000
   6039 H          78.3009   25.9412   49.2003 H       862      M_A    0.0000
   6040 H          79.0344   27.5119   47.8016 H       862      M_A    0.0000
   6041 H          80.7050   26.9371   48.0614 H       862      M_A    0.0000
   6042 C          80.8618   29.4086   48.4026 C.3     863      M_A    0.0000
   6043 C          81.3147   30.6751   49.1184 C.3     863      M_A    0.0000
   6044 O          80.8122   31.8063   48.4087 O.3     863      M_A    0.0000
   6045 H          80.2522   29.6666   47.5291 H       863      M_A    0.0000
   6046 H          81.7434   28.8653   48.0443 H       863      M_A    0.0000
   6047 H          82.4136   30.6908   49.1194 H       863      M_A    0.0000
   6048 H          80.9609   30.6955   50.1579 H       863      M_A    0.0000
   6049 C          81.1947   33.0062   49.0464 C.3     864      M_A    0.0000
   6050 C          80.3942   34.2095   48.5640 C.3     864      M_A    0.0000
   6051 O          81.1395   35.3948   48.8385 O.3     864      M_A    0.0000
   6052 H          82.2647   33.1727   48.8771 H       864      M_A    0.0000
   6053 H          81.0435   32.8847   50.1250 H       864      M_A    0.0000
   6054 H          79.4433   34.2283   49.1148 H       864      M_A    0.0000
   6055 H          80.1779   34.1414   47.4895 H       864      M_A    0.0000
   6056 C          82.2059   35.5370   47.9246 C.3     865      M_A    0.0000
   6057 C          83.0593   36.7679   48.2038 C.3     865      M_A    0.0000
   6058 O          82.6752   37.8050   47.3022 O.3     865      M_A    0.0000
   6059 H          81.7986   35.5832   46.9082 H       865      M_A    0.0000
   6060 H          82.8356   34.6425   47.9903 H       865      M_A    0.0000
   6061 H          84.1115   36.4972   48.0378 H       865      M_A    0.0000
   6062 H          82.9424   37.1089   49.2412 H       865      M_A    0.0000
   6063 C          83.5883   38.8801   47.3596 C.3     866      M_A    0.0000
   6064 C          83.3294   39.8089   48.5393 C.3     866      M_A    0.0000
   6065 O          83.1794   41.1404   48.0489 O.3     866      M_A    0.0000
   6066 H          83.5358   39.4409   46.4195 H       866      M_A    0.0000
   6067 H          84.5997   38.4669   47.4446 H       866      M_A    0.0000
   6068 H          84.1959   39.7527   49.2130 H       866      M_A    0.0000
   6069 H          82.4308   39.5091   49.0949 H       866      M_A    0.0000
   6070 C          84.4169   41.6494   47.5995 C.3     867      M_A    0.0000
   6071 C          85.0057   42.6860   48.5484 C.3     867      M_A    0.0000
   6072 O          84.4825   43.9687   48.2065 O.3     867      M_A    0.0000
   6073 H          84.2809   42.0847   46.6030 H       867      M_A    0.0000
   6074 H          85.1178   40.8125   47.5042 H       867      M_A    0.0000
   6075 H          86.0976   42.6807   48.4228 H       867      M_A    0.0000
   6076 H          84.7700   42.4502   49.5948 H       867      M_A    0.0000
   6077 C          84.0107   44.6381   49.3563 C.3     868      M_A    0.0000
   6078 C          83.2983   45.9437   49.0256 C.3     868      M_A    0.0000
   6079 O          83.7173   46.9418   49.9551 O.3     868      M_A    0.0000
   6080 H          84.8557   44.8292   50.0275 H       868      M_A    0.0000
   6081 H          83.3143   43.9728   49.8791 H       868      M_A    0.0000
   6082 H          82.2164   45.7741   49.1196 H       868      M_A    0.0000
   6083 H          83.5161   46.2697   47.9997 H       868      M_A    0.0000
   6084 C          83.3466   48.2282   49.5074 C.3     869      M_A    0.0000
   6085 C          83.8905   49.3395   50.3965 C.3     869      M_A    0.0000
   6086 O          83.3640   50.5862   49.9445 O.3     869      M_A    0.0000
   6087 H          82.2532   48.2855   49.4584 H       869      M_A    0.0000
   6088 H          83.7327   48.3620   48.4906 H       869      M_A    0.0000
   6089 H          84.9860   49.3407   50.3077 H       869      M_A    0.0000
   6090 H          83.6224   49.1772   51.4491 H       869      M_A    0.0000
   6091 C          84.0849   51.6643   50.5019 C.3     870      M_A    0.0000
   6092 C          83.4249   53.0119   50.2379 C.3     870      M_A    0.0000
   6093 O          84.4311   54.0235   50.2456 O.3     870      M_A    0.0000
   6094 H          85.1033   51.6574   50.0970 H       870      M_A    0.0000
   6095 H          84.1561   51.5064   51.5840 H       870      M_A    0.0000
   6096 H          82.6992   53.1985   51.0419 H       870      M_A    0.0000
   6097 H          82.8945   53.0161   49.2763 H       870      M_A    0.0000
   6098 C          84.0034   55.1587   49.5237 C.3     871      M_A    0.0000
   6099 C          83.9162   56.4084   50.3910 C.3     871      M_A    0.0000
   6100 O          82.9399   57.2860   49.8321 O.3     871      M_A    0.0000
   6101 H          83.0284   54.9450   49.0712 H       871      M_A    0.0000
   6102 H          84.7160   55.3365   48.7104 H       871      M_A    0.0000
   6103 H          84.9023   56.8937   50.3884 H       871      M_A    0.0000
   6104 H          83.6489   56.1589   51.4266 H       871      M_A    0.0000
   6105 C          83.3930   58.6226   49.8646 C.3     872      M_A    0.0000
   6106 C          82.3940   59.5662   50.5225 C.3     872      M_A    0.0000
   6107 O          82.7256   60.9066   50.1632 O.3     872      M_A    0.0000
   6108 H          83.6038   58.9509   48.8405 H       872      M_A    0.0000
   6109 H          84.3350   58.6519   50.4239 H       872      M_A    0.0000
   6110 H          82.4726   59.4394   51.6114 H       872      M_A    0.0000
   6111 H          81.3649   59.3376   50.2144 H       872      M_A    0.0000
   6112 C          84.1208   61.1107   50.2292 C.3     873      M_A    0.0000
   6113 C          84.4888   62.4847   50.7753 C.3     873      M_A    0.0000
   6114 O          85.0826   63.2495   49.7273 O.3     873      M_A    0.0000
   6115 H          84.5470   60.9761   49.2285 H       873      M_A    0.0000
   6116 H          84.5498   60.3403   50.8799 H       873      M_A    0.0000
   6117 H          85.2104   62.3440   51.5922 H       873      M_A    0.0000
   6118 H          83.6073   63.0077   51.1698 H       873      M_A    0.0000
   6119 C          84.6264   64.5849   49.7636 C.3     874      M_A    0.0000
   6120 C          85.6890   65.5558   50.2633 C.3     874      M_A    0.0000
   6121 O          85.0492   66.7637   50.6723 O.3     874      M_A    0.0000
   6122 H          83.7366   64.6389   50.4011 H       874      M_A    0.0000
   6123 H          84.3271   64.8728   48.7495 H       874      M_A    0.0000
   6124 H          86.3804   65.7599   49.4337 H       874      M_A    0.0000
   6125 H          86.2586   65.1297   51.1001 H       874      M_A    0.0000
   6126 C          85.8838   67.5024   51.5385 C.3     875      M_A    0.0000
   6127 C          85.1333   68.5981   52.2853 C.3     875      M_A    0.0000
   6128 O          85.1613   69.7889   51.4999 O.3     875      M_A    0.0000
   6129 H          86.7041   67.9370   50.9559 H       875      M_A    0.0000
   6130 H          86.3226   66.8097   52.2655 H       875      M_A    0.0000
   6131 H          85.6447   68.7685   53.2432 H       875      M_A    0.0000
   6132 H          84.0944   68.3051   52.4876 H       875      M_A    0.0000
   6133 C          84.0398   70.5989   51.7809 C.3     876      M_A    0.0000
   6134 C          83.0958   70.7288   50.5921 C.3     876      M_A    0.0000
   6135 O          82.4145   71.9791   50.6832 O.3     876      M_A    0.0000
   6136 H          84.3874   71.5892   52.0963 H       876      M_A    0.0000
   6137 H          83.4970   70.1533   52.6221 H       876      M_A    0.0000
   6138 H          82.3721   69.9030   50.6406 H       876      M_A    0.0000
   6139 H          83.6398   70.6652   49.6402 H       876      M_A    0.0000
   6140 C          81.1366   71.8961   50.0894 C.3     877      M_A    0.0000
   6141 C          80.8939   72.9934   49.0606 C.3     877      M_A    0.0000
   6142 O          80.0286   73.9733   49.6323 O.3     877      M_A    0.0000
   6143 H          80.3756   71.9424   50.8767 H       877      M_A    0.0000
   6144 H          81.0490   70.9199   49.5990 H       877      M_A    0.0000
   6145 H          80.4155   72.5368   48.1827 H       877      M_A    0.0000
   6146 H          81.8360   73.4615   48.7450 H       877      M_A    0.0000
   6147 C          79.6557   74.9339   48.6675 C.3     878      M_A    0.0000
   6148 C          80.8534   75.6572   48.0645 C.3     878      M_A    0.0000
   6149 O          80.8527   77.0073   48.5262 O.3     878      M_A    0.0000
   6150 H          78.9733   75.6557   49.1306 H       878      M_A    0.0000
   6151 H          79.1069   74.4225   47.8685 H       878      M_A    0.0000
   6152 H          80.7489   75.6349   46.9706 H       878      M_A    0.0000
   6153 H          81.7969   75.1664   48.3385 H       878      M_A    0.0000
   6154 C          81.7238   77.8012   47.7495 C.3     879      M_A    0.0000
   6155 C          82.6170   78.6972   48.5985 C.3     879      M_A    0.0000
   6156 O          82.2665   80.0582   48.3521 O.3     879      M_A    0.0000
   6157 H          81.1288   78.4085   47.0579 H       879      M_A    0.0000
   6158 H          82.3529   77.1339   47.1496 H       879      M_A    0.0000
   6159 H          83.6597   78.5185   48.3006 H       879      M_A    0.0000
   6160 H          82.5118   78.4693   49.6677 H       879      M_A    0.0000
   6161 C          83.1020   80.9294   49.0840 C.3     880      M_A    0.0000
   6162 C          82.3901   82.2077   49.5088 C.3     880      M_A    0.0000
   6163 O          82.8473   83.2808   48.6870 O.3     880      M_A    0.0000
   6164 H          83.9814   81.1716   48.4765 H       880      M_A    0.0000
   6165 H          83.4507   80.3999   49.9778 H       880      M_A    0.0000
   6166 H          82.6443   82.4055   50.5596 H       880      M_A    0.0000
   6167 H          81.2999   82.1061   49.4229 H       880      M_A    0.0000
   6168 C          81.7763   84.1289   48.3316 C.3     881      M_A    0.0000
   6169 C          82.1726   85.6000   48.3129 C.3     881      M_A    0.0000
   6170 O          81.0170   86.3888   48.5924 O.3     881      M_A    0.0000
   6171 H          80.9497   83.9700   49.0334 H       881      M_A    0.0000
   6172 H          81.4262   83.8398   47.3342 H       881      M_A    0.0000
   6173 H          82.5546   85.8366   47.3099 H       881      M_A    0.0000
   6174 H          82.9597   85.8118   49.0489 H       881      M_A    0.0000
   6175 C          81.1282   87.6651   47.9997 C.3     882      M_A    0.0000
   6176 C          81.0866   88.7938   49.0224 C.3     882      M_A    0.0000
   6177 O          80.2320   89.8252   48.5308 O.3     882      M_A    0.0000
   6178 H          80.3211   87.7886   47.2687 H       882      M_A    0.0000
   6179 H          82.0789   87.7093   47.4564 H       882      M_A    0.0000
   6180 H          82.1083   89.1798   49.1447 H       882      M_A    0.0000
   6181 H          80.7251   88.4380   49.9965 H       882      M_A    0.0000
   6182 C          79.9833   90.7876   49.5332 C.3     883      M_A    0.0000
   6183 C          79.8151   92.1932   48.9698 C.3     883      M_A    0.0000
   6184 O          80.0082   93.1349   50.0242 O.3     883      M_A    0.0000
   6185 H          80.8063   90.7673   50.2567 H       883      M_A    0.0000
   6186 H          79.0674   90.5023   50.0629 H       883      M_A    0.0000
   6187 H          78.7944   92.2802   48.5715 H       883      M_A    0.0000
   6188 H          80.5282   92.3867   48.1573 H       883      M_A    0.0000
   6189 C          80.1076   94.4461   49.5107 C.3     884      M_A    0.0000
   6190 C          80.3524   95.4859   50.5971 C.3     884      M_A    0.0000
   6191 O          79.3168   96.4655   50.5346 O.3     884      M_A    0.0000
   6192 H          79.1889   94.6830   48.9621 H       884      M_A    0.0000
   6193 H          80.9380   94.4726   48.7962 H       884      M_A    0.0000
   6194 H          81.3264   95.9569   50.4038 H       884      M_A    0.0000
   6195 H          80.3751   95.0255   51.5939 H       884      M_A    0.0000
   6196 C          79.6347   97.5803   51.3401 C.3     885      M_A    0.0000
   6197 C          78.5987   97.8339   52.4282 C.3     885      M_A    0.0000
   6198 O          77.7186   98.8678   51.9899 O.3     885      M_A    0.0000
   6199 H          79.7331   98.4643   50.6998 H       885      M_A    0.0000
   6200 H          80.6086   97.3985   51.8085 H       885      M_A    0.0000
   6201 H          79.1300   98.1532   53.3358 H       885      M_A    0.0000
   6202 H          78.0268   96.9244   52.6560 H       885      M_A    0.0000
   6203 C          76.7246   99.1218   52.9596 C.3     886      M_A    0.0000
   6204 C          75.7991   97.9314   53.1786 C.3     886      M_A    0.0000
   6205 O          74.4477   98.3837   53.1088 O.3     886      M_A    0.0000
   6206 H          76.1443   99.9990   52.6517 H       886      M_A    0.0000
   6207 H          77.2222   99.3670   53.9047 H       886      M_A    0.0000
   6208 H          76.0056   97.5191   54.1763 H       886      M_A    0.0000
   6209 H          75.9725   97.1468   52.4300 H       886      M_A    0.0000
   6210 C          74.3520   99.5518   52.3221 C.3     887      M_A    0.0000
   6211 C          73.2361  100.4812   52.7829 C.3     887      M_A    0.0000
   6212 O          72.5162  100.9348   51.6375 O.3     887      M_A    0.0000
   6213 H          74.1950   99.2636   51.2764 H       887      M_A    0.0000
   6214 H          75.3082  100.0841   52.3806 H       887      M_A    0.0000
   6215 H          73.6963  101.3354   53.2992 H       887      M_A    0.0000
   6216 H          72.5547   99.9740   53.4790 H       887      M_A    0.0000
   6217 C          71.6774   99.9149   51.1388 C.3     888      M_A    0.0000
   6218 C          70.4696  100.4617   50.3880 C.3     888      M_A    0.0000
   6219 O          69.4524  100.7885   51.3337 O.3     888      M_A    0.0000
   6220 H          71.3491   99.2853   51.9736 H       888      M_A    0.0000
   6221 H          72.2665   99.2873   50.4604 H       888      M_A    0.0000
   6222 H          70.1099   99.6785   49.7059 H       888      M_A    0.0000
   6223 H          70.7336  101.3492   49.7976 H       888      M_A    0.0000
   6224 C          69.9607  101.6377   52.3402 C.3     889      M_A    0.0000
   6225 C          69.2737  102.9975   52.3644 C.3     889      M_A    0.0000
   6226 O          70.2181  103.9942   51.9763 O.3     889      M_A    0.0000
   6227 H          71.0388  101.7626   52.1883 H       889      M_A    0.0000
   6228 H          69.8160  101.1463   53.3090 H       889      M_A    0.0000
   6229 H          68.9294  103.1864   53.3909 H       889      M_A    0.0000
   6230 H          68.4058  103.0193   51.6918 H       889      M_A    0.0000
   6231 C          69.5612  105.1225   51.4395 C.3     890      M_A    0.0000
   6232 C          70.5316  106.1736   50.9154 C.3     890      M_A    0.0000
   6233 O          70.5143  107.2936   51.7992 O.3     890      M_A    0.0000
   6234 H          68.9149  105.5571   52.2106 H       890      M_A    0.0000
   6235 H          68.9189  104.7866   50.6175 H       890      M_A    0.0000
   6236 H          70.1938  106.4798   49.9153 H       890      M_A    0.0000
   6237 H          71.5510  105.7728   50.8358 H       890      M_A    0.0000
   6238 C          71.2969  108.3490   51.2833 C.3     891      M_A    0.0000
   6239 C          72.7526  107.9524   51.0714 C.3     891      M_A    0.0000
   6240 O          73.5829  109.0640   51.4044 O.3     891      M_A    0.0000
   6241 H          71.2346  109.2039   51.9663 H       891      M_A    0.0000
   6242 H          70.8667  108.6577   50.3238 H       891      M_A    0.0000
   6243 H          72.8832  107.6908   50.0119 H       891      M_A    0.0000
   6244 H          73.0239  107.0830   51.6851 H       891      M_A    0.0000
   6245 C          72.8073  110.2288   51.5897 C.3     892      M_A    0.0000
   6246 C          73.5983  111.5073   51.3427 C.3     892      M_A    0.0000
   6247 O          74.2260  111.8999   52.5624 O.3     892      M_A    0.0000
   6248 H          72.4019  110.2270   52.6080 H       892      M_A    0.0000
   6249 H          71.9609  110.1915   50.8946 H       892      M_A    0.0000
   6250 H          72.8941  112.2852   51.0159 H       892      M_A    0.0000
   6251 H          74.3546  111.3648   50.5592 H       892      M_A    0.0000
   6252 C          75.3970  112.6447   52.3041 C.3     893      M_A    0.0000
   6253 C          76.5217  111.7919   51.7303 C.3     893      M_A    0.0000
   6254 O          77.7084  112.5815   51.6677 O.3     893      M_A    0.0000
   6255 H          75.7244  113.1249   53.2333 H       893      M_A    0.0000
   6256 H          75.1487  113.4375   51.5895 H       893      M_A    0.0000
   6257 H          76.2274  111.4763   50.7195 H       893      M_A    0.0000
   6258 H          76.6971  110.8968   52.3420 H       893      M_A    0.0000
   6259 C          77.5289  113.6854   50.8064 C.3     894      M_A    0.0000
   6260 C          78.7420  114.6065   50.7705 C.3     894      M_A    0.0000
   6261 O          78.2915  115.9503   50.6060 O.3     894      M_A    0.0000
   6262 H          76.6410  114.2435   51.1250 H       894      M_A    0.0000
   6263 H          77.3381  113.3052   49.7965 H       894      M_A    0.0000
   6264 H          79.3668  114.3130   49.9152 H       894      M_A    0.0000
   6265 H          79.3380  114.5192   51.6888 H       894      M_A    0.0000
   6266 C          79.2824  116.8640   51.0257 C.3     895      M_A    0.0000
   6267 C          78.7328  118.2683   51.2432 C.3     895      M_A    0.0000
   6268 O          79.8240  119.1871   51.2739 O.3     895      M_A    0.0000
   6269 H          80.0851  116.8846   50.2798 H       895      M_A    0.0000
   6270 H          79.7108  116.4978   51.9655 H       895      M_A    0.0000
   6271 H          78.2043  118.2813   52.2068 H       895      M_A    0.0000
   6272 H          78.0268  118.5490   50.4501 H       895      M_A    0.0000
   6273 C          79.4333  120.4438   50.7633 C.3     896      M_A    0.0000
   6274 C          79.3891  121.5258   51.8350 C.3     896      M_A    0.0000
   6275 O          78.0714  122.0710   51.8808 O.3     896      M_A    0.0000
   6276 H          78.4510  120.3438   50.2877 H       896      M_A    0.0000
   6277 H          80.1501  120.7370   49.9880 H       896      M_A    0.0000
   6278 H          80.1094  122.3084   51.5582 H       896      M_A    0.0000
   6279 H          79.6649  121.1253   52.8197 H       896      M_A    0.0000
   6280 C          77.9116  122.8966   53.0146 C.3     897      M_A    0.0000
   6281 C          77.2293  124.2190   52.6875 C.3     897      M_A    0.0000
   6282 O          77.2920  125.0627   53.8365 O.3     897      M_A    0.0000
   6283 H          78.8953  123.0802   53.4615 H       897      M_A    0.0000
   6284 H          77.3075  122.3547   53.7511 H       897      M_A    0.0000
   6285 H          76.1809  124.0074   52.4343 H       897      M_A    0.0000
   6286 H          77.7058  124.7140   51.8308 H       897      M_A    0.0000
   6287 C          77.0832  124.3162   55.0162 C.3     898      M_A    0.0000
   6288 C          76.2207  125.0531   56.0333 C.3     898      M_A    0.0000
   6289 O          77.0580  125.9106   56.8075 O.3     898      M_A    0.0000
   6290 H          78.0559  124.0680   55.4560 H       898      M_A    0.0000
   6291 H          76.5912  123.3755   54.7443 H       898      M_A    0.0000
   6292 H          75.7471  124.3043   56.6837 H       898      M_A    0.0000
   6293 H          75.4341  125.6400   55.5405 H       898      M_A    0.0000
   6294 C          77.2830  127.1303   56.1335 C.3     899      M_A    0.0000
   6295 C          76.8600  128.3423   56.9543 C.3     899      M_A    0.0000
   6296 O          76.8803  129.4944   56.1129 O.3     899      M_A    0.0000
   6297 H          76.7431  127.1137   55.1799 H       899      M_A    0.0000
   6298 H          78.3529  127.2059   55.9089 H       899      M_A    0.0000
   6299 H          77.5799  128.4649   57.7756 H       899      M_A    0.0000
   6300 H          75.8575  128.2061   57.3816 H       899      M_A    0.0000
   6301 C          76.0000  130.4844   56.6004 C.3     900      M_A    0.0000
   6302 C          76.5695  131.8918   56.4731 C.3     900      M_A    0.0000
   6303 O          76.4263  132.5585   57.7265 O.3     900      M_A    0.0000
   6304 H          75.7655  130.2659   57.6484 H       900      M_A    0.0000
   6305 H          75.0658  130.4234   56.0307 H       900      M_A    0.0000
   6306 H          75.9970  132.4217   55.6989 H       900      M_A    0.0000
   6307 H          77.6268  131.8704   56.1769 H       900      M_A    0.0000
   6308 C          77.2682  133.6898   57.7894 C.3     901      M_A    0.0000
   6309 C          76.4906  134.9977   57.8677 C.3     901      M_A    0.0000
   6310 O          77.1075  135.9494   57.0019 O.3     901      M_A    0.0000
   6311 H          77.9244  133.6932   56.9116 H       901      M_A    0.0000
   6312 H          77.9023  133.5965   58.6783 H       901      M_A    0.0000
   6313 H          76.5297  135.3549   58.9063 H       901      M_A    0.0000
   6314 H          75.4394  134.8559   57.5829 H       901      M_A    0.0000
   6315 C          76.1331  136.6836   56.2918 C.3     902      M_A    0.0000
   6316 C          76.6924  137.3423   55.0369 C.3     902      M_A    0.0000
   6317 O          76.9249  138.7234   55.3099 O.3     902      M_A    0.0000
   6318 H          75.7056  137.4422   56.9573 H       902      M_A    0.0000
   6319 H          75.3269  135.9981   56.0073 H       902      M_A    0.0000
   6320 H          75.9460  137.2386   54.2369 H       902      M_A    0.0000
   6321 H          77.6248  136.8605   54.7137 H       902      M_A    0.0000
   6322 C          75.7038  139.4217   55.4271 C.3     903      M_A    0.0000
   6323 C          75.7189  140.7589   54.6970 C.3     903      M_A    0.0000
   6324 O          76.2699  141.7481   55.5652 O.3     903      M_A    0.0000
   6325 H          75.4829  139.5747   56.4896 H       903      M_A    0.0000
   6326 H          74.9084  138.7945   55.0089 H       903      M_A    0.0000
   6327 H          74.6818  141.0191   54.4422 H       903      M_A    0.0000
   6328 H          76.3059  140.7024   53.7705 H       903      M_A    0.0000
   6329 C          76.5335  142.9415   54.8588 C.3     904      M_A    0.0000
   6330 C          77.9858  143.3865   54.9779 C.3     904      M_A    0.0000
   6331 O          78.0176  144.7009   55.5321 O.3     904      M_A    0.0000
   6332 H          75.8665  143.7281   55.2296 H       904      M_A    0.0000
   6333 H          76.2958  142.7744   53.8022 H       904      M_A    0.0000
   6334 H          78.4230  143.3939   53.9696 H       904      M_A    0.0000
   6335 H          78.5648  142.6983   55.6082 H       904      M_A    0.0000
   6336 C          79.0692  144.8239   56.4658 C.3     905      M_A    0.0000
   6337 C          78.7932  145.8826   57.5261 C.3     905      M_A    0.0000
   6338 O          79.3211  147.1295   57.0760 O.3     905      M_A    0.0000
   6339 H          79.9948  145.0604   55.9287 H       905      M_A    0.0000
   6340 H          79.2077  143.8537   56.9562 H       905      M_A    0.0000
   6341 H          79.2967  145.5748   58.4533 H       905      M_A    0.0000
   6342 H          77.7173  145.9792   57.7246 H       905      M_A    0.0000
   6343 C          79.2117  148.1112   58.0844 C.3     906      M_A    0.0000
   6344 C          77.7711  148.3487   58.5200 C.3     906      M_A    0.0000
   6345 O          77.4466  149.7205   58.2994 O.3     906      M_A    0.0000
   6346 H          79.6543  149.0452   57.7200 H       906      M_A    0.0000
   6347 H          79.7975  147.7809   58.9497 H       906      M_A    0.0000
   6348 H          77.6963  148.1131   59.5909 H       906      M_A    0.0000
   6349 H          77.0746  147.7037   57.9677 H       906      M_A    0.0000
   6350 C          76.1576  150.0145   58.7942 C.3     907      M_A    0.0000
   6351 C          75.0541  149.6686   57.8021 C.3     907      M_A    0.0000
   6352 O          73.8172  150.1788   58.2974 O.3     907      M_A    0.0000
   6353 H          76.1113  151.0782   59.0540 H       907      M_A    0.0000
   6354 H          76.0043  149.4402   59.7148 H       907      M_A    0.0000
   6355 H          75.0021  148.5739   57.7193 H       907      M_A    0.0000
   6356 H          75.2633  150.0878   56.8088 H       907      M_A    0.0000
   6357 C          73.8592  150.3140   59.7019 C.3     908      M_A    0.0000
   6358 C          72.5382  149.9489   60.3675 C.3     908      M_A    0.0000
   6359 O          71.9714  151.1281   60.9367 O.3     908      M_A    0.0000
   6360 H          74.1348  151.3450   59.9512 H       908      M_A    0.0000
   6361 H          74.6474  149.6567   60.0863 H       908      M_A    0.0000
   6362 H          72.7471  149.2141   61.1577 H       908      M_A    0.0000
   6363 H          71.8374  149.5039   59.6485 H       908      M_A    0.0000
   6364 C          70.7861  150.8231   61.6402 C.3     909      M_A    0.0000
   6365 C          70.6829  151.5643   62.9673 C.3     909      M_A    0.0000
   6366 O          69.8493  150.8121   63.8478 O.3     909      M_A    0.0000
   6367 H          70.7415  149.7410   61.8081 H       909      M_A    0.0000
   6368 H          69.9328  151.0974   61.0096 H       909      M_A    0.0000
   6369 H          70.2325  152.5479   62.7735 H       909      M_A    0.0000
   6370 H          71.6720  151.7126   63.4208 H       909      M_A    0.0000
   6371 C          69.1323  151.6691   64.7104 C.3     910      M_A    0.0000
   6372 C          69.0958  151.1615   66.1465 C.3     910      M_A    0.0000
   6373 O          67.7432  151.1705   66.6007 O.3     910      M_A    0.0000
   6374 H          68.1127  151.7873   64.3262 H       910      M_A    0.0000
   6375 H          69.6115  152.6545   64.6910 H       910      M_A    0.0000
   6376 H          69.7028  151.8398   66.7625 H       910      M_A    0.0000
   6377 H          69.5118  150.1481   66.2234 H       910      M_A    0.0000
   6378 C          66.8722  150.7219   65.5845 C.3     911      M_A    0.0000
   6379 C          65.4346  150.5716   66.0665 C.3     911      M_A    0.0000
   6380 O          64.9962  149.2421   65.7906 O.3     911      M_A    0.0000
   6381 H          67.2418  149.7659   65.1967 H       911      M_A    0.0000
   6382 H          66.9005  151.4473   64.7636 H       911      M_A    0.0000
   6383 H          64.8142  151.2929   65.5163 H       911      M_A    0.0000
   6384 H          65.3490  150.7806   67.1413 H       911      M_A    0.0000
   6385 C          63.5875  149.1853   65.7202 C.3     912      M_A    0.0000
   6386 C          62.9124  149.8140   66.9328 C.3     912      M_A    0.0000
   6387 O          61.5156  149.5282   66.8783 O.3     912      M_A    0.0000
   6388 H          63.2791  148.1387   65.6173 H       912      M_A    0.0000
   6389 H          63.2675  149.7168   64.8168 H       912      M_A    0.0000
   6390 H          63.0752  150.9000   66.8878 H       912      M_A    0.0000
   6391 H          63.3382  149.4323   67.8705 H       912      M_A    0.0000
   6392 C          61.0523  149.5539   65.5451 C.3     913      M_A    0.0000
   6393 C          59.7726  150.3647   65.3829 C.3     913      M_A    0.0000
   6394 O          58.6582  149.4748   65.4289 O.3     913      M_A    0.0000
   6395 H          60.8921  148.5244   65.2051 H       913      M_A    0.0000
   6396 H          61.8363  149.9932   64.9179 H       913      M_A    0.0000
   6397 H          59.8104  150.8683   64.4068 H       913      M_A    0.0000
   6398 H          59.6788  151.1259   66.1689 H       913      M_A    0.0000
   6399 C          57.5062  150.1410   65.8998 C.3     914      M_A    0.0000
   6400 C          56.3480  149.1898   66.1743 C.3     914      M_A    0.0000
   6401 O          55.1221  149.8922   65.9754 O.3     914      M_A    0.0000
   6402 H          57.2075  150.8965   65.1642 H       914      M_A    0.0000
   6403 H          57.7673  150.6640   66.8267 H       914      M_A    0.0000
   6404 H          56.4232  148.8548   67.2184 H       914      M_A    0.0000
   6405 H          56.3884  148.3102   65.5180 H       914      M_A    0.0000
   6406 C          54.0613  149.2448   66.6448 C.3     915      M_A    0.0000
   6407 C          53.1053  148.5414   65.6894 C.3     915      M_A    0.0000
   6408 O          51.9196  148.1933   66.4025 O.3     915      M_A    0.0000
   6409 H          53.5183  149.9826   67.2463 H       915      M_A    0.0000
   6410 H          54.4893  148.5058   67.3315 H       915      M_A    0.0000
   6411 H          53.6012  147.6329   65.3197 H       915      M_A    0.0000
   6412 H          52.8548  149.1801   64.8318 H       915      M_A    0.0000
   6413 C          51.1550  147.2572   65.6732 C.3     916      M_A    0.0000
   6414 C          50.2351  146.4295   66.5622 C.3     916      M_A    0.0000
   6415 O          50.5396  145.0482   66.3753 O.3     916      M_A    0.0000
   6416 H          51.8338  146.6003   65.1176 H       916      M_A    0.0000
   6417 H          50.5490  147.8044   64.9422 H       916      M_A    0.0000
   6418 H          49.1980  146.6294   66.2581 H       916      M_A    0.0000
   6419 H          50.3508  146.7005   67.6201 H       916      M_A    0.0000
   6420 C          49.3941  144.2511   66.5875 C.3     917      M_A    0.0000
   6421 C          49.5914  143.2206   67.6923 C.3     917      M_A    0.0000
   6422 O          48.9869  141.9934   67.2867 O.3     917      M_A    0.0000
   6423 H          49.1305  143.7513   65.6484 H       917      M_A    0.0000
   6424 H          48.5622  144.9111   66.8580 H       917      M_A    0.0000
   6425 H          49.1013  143.5979   68.6008 H       917      M_A    0.0000
   6426 H          50.6569  143.0624   67.9063 H       917      M_A    0.0000
   6427 C          48.8420  141.1206   68.3866 C.3     918      M_A    0.0000
   6428 C          48.7047  139.6627   67.9660 C.3     918      M_A    0.0000
   6429 O          47.4474  139.1700   68.4267 O.3     918      M_A    0.0000
   6430 H          47.9675  141.4284   68.9711 H       918      M_A    0.0000
   6431 H          49.7246  141.2268   69.0273 H       918      M_A    0.0000
   6432 H          49.5231  139.0958   68.4318 H       918      M_A    0.0000
   6433 H          48.7754  139.5523   66.8756 H       918      M_A    0.0000
   6434 C          47.3877  137.7647   68.3076 C.3     919      M_A    0.0000
   6435 C          46.0020  137.2661   67.9168 C.3     919      M_A    0.0000
   6436 O          45.6235  136.2197   68.8100 O.3     919      M_A    0.0000
   6437 H          47.6962  137.3145   69.2581 H       919      M_A    0.0000
   6438 H          48.1086  137.4543   67.5429 H       919      M_A    0.0000
   6439 H          46.0566  136.8805   66.8891 H       919      M_A    0.0000
   6440 H          45.2611  138.0760   67.9506 H       919      M_A    0.0000
   6441 C          44.7858  135.2875   68.1605 C.3     920      M_A    0.0000
   6442 C          43.3319  135.3954   68.6031 C.3     920      M_A    0.0000
   6443 O          42.8916  134.1122   69.0452 O.3     920      M_A    0.0000
   6444 H          45.1641  134.2768   68.3518 H       920      M_A    0.0000
   6445 H          44.8456  135.4664   67.0810 H       920      M_A    0.0000
   6446 H          42.7361  135.7189   67.7381 H       920      M_A    0.0000
   6447 H          43.2125  136.1323   69.4087 H       920      M_A    0.0000
   6448 C          42.7515  133.2289   67.9531 C.3     921      M_A    0.0000
   6449 C          41.5963  133.6079   67.0348 C.3     921      M_A    0.0000
   6450 O          40.4140  132.9538   67.4930 O.3     921      M_A    0.0000
   6451 H          42.6112  132.2114   68.3353 H       921      M_A    0.0000
   6452 H          43.6847  133.2428   67.3787 H       921      M_A    0.0000
   6453 H          41.8434  133.2680   66.0192 H       921      M_A    0.0000
   6454 H          41.4412  134.6949   67.0147 H       921      M_A    0.0000
   6455 C          39.5441  133.8739   68.1170 C.3     922      M_A    0.0000
   6456 C          38.5822  133.2057   69.0915 C.3     922      M_A    0.0000
   6457 O          37.2581  133.6557   68.8085 O.3     922      M_A    0.0000
   6458 H          38.9841  134.4130   67.3444 H       922      M_A    0.0000
   6459 H          40.1519  134.6067   68.6597 H       922      M_A    0.0000
   6460 H          38.8695  133.5021   70.1101 H       922      M_A    0.0000
   6461 H          38.6319  132.1112   69.0156 H       922      M_A    0.0000
   6462 C          36.3426  133.1368   69.7494 C.3     923      M_A    0.0000
   6463 C          35.1778  132.4049   69.0944 C.3     923      M_A    0.0000
   6464 O          33.9676  132.8045   69.7358 O.3     923      M_A    0.0000
   6465 H          35.9697  133.9581   70.3719 H       923      M_A    0.0000
   6466 H          36.8802  132.4411   70.4035 H       923      M_A    0.0000
   6467 H          35.3352  131.3256   69.2294 H       923      M_A    0.0000
   6468 H          35.1230  132.6214   68.0191 H       923      M_A    0.0000
   6469 C          32.9959  131.7843   69.6489 C.3     924      M_A    0.0000
   6470 C          31.6468  132.2973   69.1609 C.3     924      M_A    0.0000
   6471 O          30.6507  131.9512   70.1220 O.3     924      M_A    0.0000
   6472 H          32.8868  131.3132   70.6324 H       924      M_A    0.0000
   6473 H          33.3615  131.0208   68.9530 H       924      M_A    0.0000
   6474 H          31.4256  131.8118   68.2000 H       924      M_A    0.0000
   6475 H          31.6629  133.3851   69.0107 H       924      M_A    0.0000
   6476 C          29.3777  131.8752   69.5168 C.3     925      M_A    0.0000
   6477 C          28.3910  132.8823   70.0944 C.3     925      M_A    0.0000
   6478 O          27.0759  132.3356   70.0081 O.3     925      M_A    0.0000
   6479 H          28.9893  130.8571   69.6337 H       925      M_A    0.0000
   6480 H          29.4961  132.0649   68.4440 H       925      M_A    0.0000
   6481 H          28.4547  133.8023   69.4964 H       925      M_A    0.0000
   6482 H          28.6305  133.1234   71.1387 H       925      M_A    0.0000
   6483 C          26.1236  133.3562   69.7984 C.3     926      M_A    0.0000
   6484 C          24.8728  133.1771   70.6498 C.3     926      M_A    0.0000
   6485 O          23.7563  132.9725   69.7853 O.3     926      M_A    0.0000
   6486 H          25.8563  133.3793   68.7358 H       926      M_A    0.0000
   6487 H          26.5901  134.3166   70.0451 H       926      M_A    0.0000
   6488 H          24.7282  134.0938   71.2388 H       926      M_A    0.0000
   6489 H          24.9758  132.3281   71.3387 H       926      M_A    0.0000
   6490 C          22.5435  133.1236   70.4918 C.3     927      M_A    0.0000
   6491 C          21.7049  131.8515   70.4988 C.3     927      M_A    0.0000
   6492 O          20.4324  132.1456   71.0734 O.3     927      M_A    0.0000
   6493 H          21.9743  133.9480   70.0476 H       927      M_A    0.0000
   6494 H          22.7807  133.4017   71.5249 H       927      M_A    0.0000
   6495 H          22.2282  131.1025   71.1097 H       927      M_A    0.0000
   6496 H          21.5763  131.4514   69.4842 H       927      M_A    0.0000
   6497 C          19.9394  131.0341   71.7905 C.3     928      M_A    0.0000
   6498 C          19.7974  131.3126   73.2817 C.3     928      M_A    0.0000
   6499 O          20.5066  130.3074   74.0045 O.3     928      M_A    0.0000
   6500 H          20.6088  130.1817   71.6282 H       928      M_A    0.0000
   6501 H          18.9581  130.7694   71.3807 H       928      M_A    0.0000
   6502 H          18.7286  131.2730   73.5348 H       928      M_A    0.0000
   6503 H          20.1846  132.3069   73.5417 H       928      M_A    0.0000
   6504 C          21.8941  130.5668   73.9895 C.3     929      M_A    0.0000
   6505 C          22.5702  130.0759   72.7154 C.3     929      M_A    0.0000
   6506 O          23.5612  129.1111   73.0657 O.3     929      M_A    0.0000
   6507 H          22.3529  130.0947   74.8657 H       929      M_A    0.0000
   6508 H          22.0418  131.6489   74.0790 H       929      M_A    0.0000
   6509 H          23.0435  130.9394   72.2271 H       929      M_A    0.0000
   6510 H          21.8430  129.6335   72.0214 H       929      M_A    0.0000
   6511 C          24.7044  129.7417   73.6024 C.3     930      M_A    0.0000
   6512 C          25.4870  130.5277   72.5579 C.3     930      M_A    0.0000
   6513 O          26.8433  130.0847   72.5733 O.3     930      M_A    0.0000
   6514 H          25.3465  128.9814   74.0615 H       930      M_A    0.0000
   6515 H          24.3790  130.4250   74.3950 H       930      M_A    0.0000
   6516 H          25.4372  131.5925   72.8257 H       930      M_A    0.0000
   6517 H          25.0596  130.3961   71.5549 H       930      M_A    0.0000
   6518 C          26.9643  128.8252   71.9475 C.3     931      M_A    0.0000
   6519 C          28.2103  128.0671   72.3882 C.3     931      M_A    0.0000
   6520 O          29.2688  128.3572   71.4766 O.3     931      M_A    0.0000
   6521 H          26.9746  128.9682   70.8609 H       931      M_A    0.0000
   6522 H          26.0774  128.2318   72.1966 H       931      M_A    0.0000
   6523 H          27.9802  126.9926   72.3662 H       931      M_A    0.0000
   6524 H          28.5065  128.3433   73.4091 H       931      M_A    0.0000
   6525 C          30.3284  127.4377   71.6327 C.3     932      M_A    0.0000
   6526 C          31.3652  127.9022   72.6479 C.3     932      M_A    0.0000
   6527 O          32.6383  127.9633   72.0065 O.3     932      M_A    0.0000
   6528 H          30.8021  127.2733   70.6582 H       932      M_A    0.0000
   6529 H          29.9070  126.4816   71.9633 H       932      M_A    0.0000
   6530 H          31.3923  127.1689   73.4662 H       932      M_A    0.0000
   6531 H          31.1058  128.8849   73.0638 H       932      M_A    0.0000
   6532 C          32.7205  129.0950   71.1667 C.3     933      M_A    0.0000
   6533 C          34.1506  129.4150   70.7499 C.3     933      M_A    0.0000
   6534 O          34.7471  128.2336   70.2168 O.3     933      M_A    0.0000
   6535 H          32.2773  129.9536   71.6838 H       933      M_A    0.0000
   6536 H          32.1212  128.9010   70.2700 H       933      M_A    0.0000
   6537 H          34.7003  129.7423   71.6436 H       933      M_A    0.0000
   6538 H          34.1792  130.2205   70.0039 H       933      M_A    0.0000
   6539 C          35.9119  127.8932   70.9379 C.3     934      M_A    0.0000
   6540 C          36.9670  128.9918   70.9030 C.3     934      M_A    0.0000
   6541 O          38.1476  128.5129   71.5452 O.3     934      M_A    0.0000
   6542 H          36.3227  126.9627   70.5300 H       934      M_A    0.0000
   6543 H          35.6275  127.7031   71.9790 H       934      M_A    0.0000
   6544 H          36.5709  129.8613   71.4462 H       934      M_A    0.0000
   6545 H          37.1957  129.2943   69.8723 H       934      M_A    0.0000
   6546 C          37.8239  127.5803   72.5543 C.3     935      M_A    0.0000
   6547 C          38.9673  127.3558   73.5360 C.3     935      M_A    0.0000
   6548 O          39.8042  126.3152   73.0335 O.3     935      M_A    0.0000
   6549 H          37.5395  126.6324   72.0836 H       935      M_A    0.0000
   6550 H          36.9513  127.9554   73.1009 H       935      M_A    0.0000
   6551 H          38.5337  127.0556   74.5003 H       935      M_A    0.0000
   6552 H          39.5540  128.2724   73.6834 H       935      M_A    0.0000
   6553 C          40.7423  126.8297   72.1127 C.3     936      M_A    0.0000
   6554 C          42.1805  126.4990   72.4920 C.3     936      M_A    0.0000
   6555 O          43.0343  127.5243   71.9863 O.3     936      M_A    0.0000
   6556 H          40.6112  127.9154   72.0416 H       936      M_A    0.0000
   6557 H          40.5250  126.4030   71.1270 H       936      M_A    0.0000
   6558 H          42.4401  125.5346   72.0334 H       936      M_A    0.0000
   6559 H          42.2979  126.4146   73.5807 H       936      M_A    0.0000
   6560 C          44.3464  127.3720   72.4841 C.3     937      M_A    0.0000
   6561 C          45.3660  127.1085   71.3829 C.3     937      M_A    0.0000
   6562 O          46.5667  126.6195   71.9786 O.3     937      M_A    0.0000
   6563 H          44.3571  126.5526   73.2118 H       937      M_A    0.0000
   6564 H          44.6212  128.2911   73.0138 H       937      M_A    0.0000
   6565 H          45.5632  128.0590   70.8675 H       937      M_A    0.0000
   6566 H          44.9863  126.3829   70.6513 H       937      M_A    0.0000
   6567 C          47.5383  127.6407   72.0549 C.3     938      M_A    0.0000
   6568 C          48.9405  127.1440   71.7255 C.3     938      M_A    0.0000
   6569 O          49.7118  127.1219   72.9256 O.3     938      M_A    0.0000
   6570 H          47.5187  128.0748   73.0610 H       938      M_A    0.0000
   6571 H          47.2625  128.4301   71.3465 H       938      M_A    0.0000
   6572 H          49.3882  127.8425   71.0046 H       938      M_A    0.0000
   6573 H          48.9149  126.1422   71.2762 H       938      M_A    0.0000
   6574 C          50.5816  126.0101   72.9399 C.3     939      M_A    0.0000
   6575 C          52.0495  126.4129   73.0058 C.3     939      M_A    0.0000
   6576 O          52.8364  125.3698   72.4326 O.3     939      M_A    0.0000
   6577 H          50.3968  125.4034   72.0461 H       939      M_A    0.0000
   6578 H          50.3392  125.3962   73.8147 H       939      M_A    0.0000
   6579 H          52.3181  126.5478   74.0630 H       939      M_A    0.0000
   6580 H          52.2299  127.3563   72.4732 H       939      M_A    0.0000
   6581 C          54.0639  125.2368   73.1168 C.3     940      M_A    0.0000
   6582 C          55.2439  125.7756   72.3175 C.3     940      M_A    0.0000
   6583 O          56.4210  125.0697   72.7073 O.3     940      M_A    0.0000
   6584 H          54.2231  124.1797   73.3581 H       940      M_A    0.0000
   6585 H          53.9911  125.7865   74.0621 H       940      M_A    0.0000
   6586 H          55.3529  126.8441   72.5503 H       940      M_A    0.0000
   6587 H          55.0792  125.6651   71.2373 H       940      M_A    0.0000
   6588 C          57.5730  125.6867   72.1736 C.3     941      M_A    0.0000
   6589 C          58.7626  124.7384   72.0900 C.3     941      M_A    0.0000
   6590 O          59.9249  125.4200   72.5594 O.3     941      M_A    0.0000
   6591 H          57.8271  126.5570   72.7893 H       941      M_A    0.0000
   6592 H          57.3331  126.0494   71.1677 H       941      M_A    0.0000
   6593 H          58.8955  124.4513   71.0375 H       941      M_A    0.0000
   6594 H          58.5931  123.8305   72.6843 H       941      M_A    0.0000
   6595 C          60.3306  126.4086   71.6371 C.3     942      M_A    0.0000
   6596 C          60.8701  125.8172   70.3407 C.3     942      M_A    0.0000
   6597 O          62.2908  125.7258   70.4358 O.3     942      M_A    0.0000
   6598 H          61.0910  127.0423   72.1076 H       942      M_A    0.0000
   6599 H          59.4651  127.0410   71.4092 H       942      M_A    0.0000
   6600 H          60.5918  126.4907   69.5179 H       942      M_A    0.0000
   6601 H          60.4415  124.8253   70.1446 H       942      M_A    0.0000
   6602 C          62.6935  125.5913   71.7821 C.3     943      M_A    0.0000
   6603 C          64.0820  124.9796   71.9220 C.3     943      M_A    0.0000
   6604 O          64.1922  124.3859   73.2147 O.3     943      M_A    0.0000
   6605 H          61.9563  124.9789   72.3136 H       943      M_A    0.0000
   6606 H          62.6927  126.5863   72.2414 H       943      M_A    0.0000
   6607 H          64.8212  125.7860   71.8154 H       943      M_A    0.0000
   6608 H          64.2675  124.2262   71.1448 H       943      M_A    0.0000
   6609 C          65.3199  123.5394   73.2810 C.3     944      M_A    0.0000
   6610 C          66.3630  124.0268   74.2789 C.3     944      M_A    0.0000
   6611 O          67.6576  123.8745   73.6987 O.3     944      M_A    0.0000
   6612 H          65.7627  123.4592   72.2817 H       944      M_A    0.0000
   6613 H          64.9816  122.5398   73.5762 H       944      M_A    0.0000
   6614 H          66.2826  123.4087   75.1841 H       944      M_A    0.0000
   6615 H          66.1946  125.0769   74.5530 H       944      M_A    0.0000
   6616 C          67.5738  123.2029   72.4600 C.3     945      M_A    0.0000
   6617 C          68.8702  122.4953   72.0859 C.3     945      M_A    0.0000
   6618 O          69.6750  123.3899   71.3192 O.3     945      M_A    0.0000
   6619 H          67.3005  123.9252   71.6824 H       945      M_A    0.0000
   6620 H          66.7680  122.4630   72.5248 H       945      M_A    0.0000
   6621 H          68.6143  121.6118   71.4844 H       945      M_A    0.0000
   6622 H          69.4189  122.1669   72.9788 H       945      M_A    0.0000
   6623 C          70.7158  122.6926   70.6687 C.3     946      M_A    0.0000
   6624 C          71.7661  122.1656   71.6384 C.3     946      M_A    0.0000
   6625 O          72.9861  122.8725   71.4201 O.3     946      M_A    0.0000
   6626 H          71.1820  123.3570   69.9323 H       946      M_A    0.0000
   6627 H          70.2759  121.8492   70.1245 H       946      M_A    0.0000
   6628 H          71.9111  121.0954   71.4343 H       946      M_A    0.0000
   6629 H          71.4436  122.2850   72.6814 H       946      M_A    0.0000
   6630 C          73.8150  122.8023   72.5606 C.3     947      M_A    0.0000
   6631 C          75.2583  123.1894   72.2632 C.3     947      M_A    0.0000
   6632 O          76.1227  122.2155   72.8463 O.3     947      M_A    0.0000
   6633 H          73.7735  121.7855   72.9674 H       947      M_A    0.0000
   6634 H          73.4115  123.4813   73.3202 H       947      M_A    0.0000
   6635 H          75.4458  124.1746   72.7130 H       947      M_A    0.0000
   6636 H          75.4404  123.2550   71.1822 H       947      M_A    0.0000
   6637 C          77.3700  122.1954   72.1856 C.3     948      M_A    0.0000
   6638 C          78.5205  121.8239   73.1128 C.3     948      M_A    0.0000
   6639 O          79.7507  122.1613   72.4734 O.3     948      M_A    0.0000
   6640 H          77.5499  123.1790   71.7369 H       948      M_A    0.0000
   6641 H          77.3154  121.4634   71.3718 H       948      M_A    0.0000
   6642 H          78.4761  120.7405   73.2927 H       948      M_A    0.0000
   6643 H          78.4421  122.3447   74.0764 H       948      M_A    0.0000
   6644 C          80.8149  121.4022   73.0061 C.3     949      M_A    0.0000
   6645 C          82.1614  122.1024   72.8719 C.3     949      M_A    0.0000
   6646 O          83.1544  121.1280   72.5550 O.3     949      M_A    0.0000
   6647 H          80.8440  120.4293   72.5023 H       949      M_A    0.0000
   6648 H          80.6097  121.2213   74.0673 H       949      M_A    0.0000
   6649 H          82.3955  122.5770   73.8352 H       949      M_A    0.0000
   6650 H          82.1335  122.8777   72.0945 H       949      M_A    0.0000
   6651 C          84.3885  121.7488   72.2650 C.3     950      M_A    0.0000
   6652 C          85.5480  120.7612   72.2240 C.3     950      M_A    0.0000
   6653 O          86.7598  121.4672   72.4867 O.3     950      M_A    0.0000
   6654 H          84.5804  122.5247   73.0148 H       950      M_A    0.0000
   6655 H          84.3037  122.2419   71.2900 H       950      M_A    0.0000
   6656 H          85.5824  120.3184   71.2186 H       950      M_A    0.0000
   6657 H          85.4144  119.9565   72.9593 H       950      M_A    0.0000
   6658 C          87.8725  120.7477   72.0000 C.3     951      M_A    0.0000
   6659 C          89.0854  120.8500   72.9164 C.3     951      M_A    0.0000
   6660 O          90.2673  120.7232   72.1271 O.3     951      M_A    0.0000
   6661 H          88.1238  121.1170   70.9992 H       951      M_A    0.0000
   6662 H          87.5846  119.6947   71.9035 H       951      M_A    0.0000
   6663 H          89.0313  120.0292   73.6453 H       951      M_A    0.0000
   6664 H          89.0967  121.8041   73.4601 H       951      M_A    0.0000
   6665 C          91.4197  120.7849   72.9399 C.3     952      M_A    0.0000
   6666 C          92.7060  120.8861   72.1296 C.3     952      M_A    0.0000
   6667 O          93.7449  120.2074   72.8338 O.3     952      M_A    0.0000
   6668 H          91.4481  119.8982   73.5834 H       952      M_A    0.0000
   6669 H          91.3352  121.6641   73.5886 H       952      M_A    0.0000
   6670 H          92.9582  121.9505   72.0234 H       952      M_A    0.0000
   6671 H          92.5836  120.4512   71.1286 H       952      M_A    0.0000
   6672 C          94.8667  120.0097   72.0000 C.3     953      M_A    0.0000
   6673 C          96.1153  119.6140   72.7784 C.3     953      M_A    0.0000
   6674 O          97.2642  120.0441   72.0497 O.3     953      M_A    0.0000
   6675 H          95.0522  120.9278   71.4310 H       953      M_A    0.0000
   6676 H          94.6256  119.2168   71.2829 H       953      M_A    0.0000
   6677 H          96.1219  118.5194   72.8771 H       953      M_A    0.0000
   6678 H          96.1184  120.0586   73.7826 H       953      M_A    0.0000
   6679 C          98.4169  120.0000   72.8633 C.3     954      M_A    0.0000
   6680 C          99.7083  120.0545   72.0566 C.3     954      M_A    0.0000
   6681 O         100.7223  119.3462   72.7679 O.3     954      M_A    0.0000
   6682 H          98.3890  119.0872   73.4692 H       954      M_A    0.0000
   6683 H          98.3863  120.8550   73.5482 H       954      M_A    0.0000
   6684 H          99.9955  121.1095   71.9453 H       954      M_A    0.0000
   6685 H          99.5748  119.6182   71.0577 H       954      M_A    0.0000
   6686 C         101.8882  119.2204   71.9821 C.3     955      M_A    0.0000
   6687 C         102.9429  118.3340   72.6329 C.3     955      M_A    0.0000
   6688 O         104.1821  119.0408   72.6587 O.3     955      M_A    0.0000
   6689 H         102.2988  120.2189   71.7939 H       955      M_A    0.0000
   6690 H         101.6054  118.7892   71.0152 H       955      M_A    0.0000
   6691 H         103.0432  117.4232   72.0259 H       955      M_A    0.0000
   6692 H         102.6516  118.0479   73.6524 H       955      M_A    0.0000
   6693 C         104.7821  119.0437   71.3810 C.3     956      M_A    0.0000
   6694 C         106.2698  119.3684   71.4308 C.3     956      M_A    0.0000
   6695 O         106.5423  120.4109   70.4955 O.3     956      M_A    0.0000
   6696 H         104.2593  119.7672   70.7450 H       956      M_A    0.0000
   6697 H         104.6470  118.0512   70.9363 H       956      M_A    0.0000
   6698 H         106.8254  118.4614   71.1539 H       956      M_A    0.0000
   6699 H         106.5785  119.6770   72.4386 H       956      M_A    0.0000
   6700 C         107.6359  121.1935   70.9245 C.3     957      M_A    0.0000
   6701 C         108.8375  121.0850   69.9939 C.3     957      M_A    0.0000
   6702 O         109.3706  119.7648   70.0872 O.3     957      M_A    0.0000
   6703 H         107.9156  120.8869   71.9388 H       957      M_A    0.0000
   6704 H         107.3122  122.2394   70.9705 H       957      M_A    0.0000
   6705 H         109.5889  121.8170   70.3218 H       957      M_A    0.0000
   6706 H         108.5600  121.3061   68.9546 H       957      M_A    0.0000
   6707 C         109.9480  119.3716   68.8606 C.3     958      M_A    0.0000
   6708 C         110.7790  118.1003   68.9827 C.3     958      M_A    0.0000
   6709 O         112.1235  118.4609   69.2958 O.3     958      M_A    0.0000
   6710 H         110.5675  120.1920   68.4807 H       958      M_A    0.0000
   6711 H         109.1402  119.2033   68.1395 H       958      M_A    0.0000
   6712 H         110.7461  117.5783   68.0160 H       958      M_A    0.0000
   6713 H         110.3782  117.4332   69.7574 H       958      M_A    0.0000
   6714 C         112.9717  117.3347   69.2261 C.3     959      M_A    0.0000
   6715 C         113.5888  116.9792   70.5731 C.3     959      M_A    0.0000
   6716 O         115.0091  117.0557   70.4601 O.3     959      M_A    0.0000
   6717 H         113.7598  117.5289   68.4898 H       959      M_A    0.0000
   6718 H         112.3827  116.4834   68.8664 H       959      M_A    0.0000
   6719 H         113.2873  115.9528   70.8251 H       959      M_A    0.0000
   6720 H         113.2374  117.6542   71.3649 H       959      M_A    0.0000
   6721 C         115.5052  115.9947   69.6723 C.3     960      M_A    0.0000
   6722 C         116.6007  115.2028   70.3754 C.3     960      M_A    0.0000
   6723 O         117.8481  115.8638   70.1679 O.3     960      M_A    0.0000
   6724 H         115.8814  116.4007   68.7264 H       960      M_A    0.0000
   6725 H         114.6720  115.3226   69.4380 H       960      M_A    0.0000
   6726 H         116.6309  114.1972   69.9328 H       960      M_A    0.0000
   6727 H         116.3990  115.1087   71.4508 H       960      M_A    0.0000
   6728 C         118.4315  116.2277   71.4008 C.3     961      M_A    0.0000
   6729 C         119.6874  117.0731   71.2300 C.3     961      M_A    0.0000
   6730 O         120.6623  116.6409   72.1779 O.3     961      M_A    0.0000
   6731 H         118.6633  115.3178   71.9660 H       961      M_A    0.0000
   6732 H         117.6921  116.7970   71.9753 H       961      M_A    0.0000
   6733 H         119.4196  118.1221   71.4192 H       961      M_A    0.0000
   6734 H         120.0902  116.9902   70.2116 H       961      M_A    0.0000
   6735 C         120.9409  115.2665   72.0164 C.3     962      M_A    0.0000
   6736 C         122.2988  114.8713   72.5833 C.3     962      M_A    0.0000
   6737 O         123.2877  115.0525   71.5708 O.3     962      M_A    0.0000
   6738 H         120.8902  115.0169   70.9505 H       962      M_A    0.0000
   6739 H         120.1589  114.6954   72.5294 H       962      M_A    0.0000
   6740 H         122.2505  113.8128   72.8753 H       962      M_A    0.0000
   6741 H         122.5525  115.4699   73.4684 H       962      M_A    0.0000
   6742 C         124.5704  115.1885   72.1442 C.3     963      M_A    0.0000
   6743 C         124.7481  116.5106   72.8803 C.3     963      M_A    0.0000
   6744 O         126.1196  116.8965   72.8030 O.3     963      M_A    0.0000
   6745 H         125.3242  115.0922   71.3545 H       963      M_A    0.0000
   6746 H         124.7201  114.3632   72.8495 H       963      M_A    0.0000
   6747 H         124.4603  116.3570   73.9298 H       963      M_A    0.0000
   6748 H         124.1115  117.2960   72.4515 H       963      M_A    0.0000
   6749 C         126.9588  115.7615   72.8073 C.3     964      M_A    0.0000
   6750 C         128.4385  116.1243   72.7995 C.3     964      M_A    0.0000
   6751 O         129.1540  115.1127   72.0920 O.3     964      M_A    0.0000
   6752 H         126.7185  115.1392   71.9377 H       964      M_A    0.0000
   6753 H         126.7386  115.1755   73.7067 H       964      M_A    0.0000
   6754 H         128.7835  116.1682   73.8421 H       964      M_A    0.0000
   6755 H         128.6081  117.1028   72.3306 H       964      M_A    0.0000
   6756 C         130.4597  115.5496   71.7806 C.3     965      M_A    0.0000
   6757 C         131.5357  114.6069   72.3051 C.3     965      M_A    0.0000
   6758 O         132.7974  115.2697   72.2370 O.3     965      M_A    0.0000
   6759 H         130.6054  116.5546   72.1927 H       965      M_A    0.0000
   6760 H         130.5467  115.6210   70.6906 H       965      M_A    0.0000
   6761 H         131.5464  113.7134   71.6652 H       965      M_A    0.0000
   6762 H         131.3282  114.2981   73.3384 H       965      M_A    0.0000
   6763 C         133.2185  115.4054   70.8965 C.3     966      M_A    0.0000
   6764 C         134.5760  114.7635   70.6389 C.3     966      M_A    0.0000
   6765 O         135.5928  115.7408   70.8551 O.3     966      M_A    0.0000
   6766 H         133.2504  116.4706   70.6406 H       966      M_A    0.0000
   6767 H         132.4700  114.9307   70.2521 H       966      M_A    0.0000
   6768 H         134.5987  114.4235   69.5939 H       966      M_A    0.0000
   6769 H         134.7404  113.8981   71.2948 H       966      M_A    0.0000
   6770 C         136.6949  115.1737   71.5307 C.3     967      M_A    0.0000
   6771 C         137.9759  115.9773   71.3439 C.3     967      M_A    0.0000
   6772 O         139.0560  115.2622   71.9420 O.3     967      M_A    0.0000
   6773 H         136.8388  114.1469   71.1757 H       967      M_A    0.0000
   6774 H         136.4549  115.1259   72.5988 H       967      M_A    0.0000
   6775 H         137.8452  116.9470   71.8445 H       967      M_A    0.0000
   6776 H         138.1853  116.1550   70.2806 H       967      M_A    0.0000
   6777 C         140.0086  116.1544   72.4798 C.3     968      M_A    0.0000
   6778 C         141.4269  115.8518   72.0125 C.3     968      M_A    0.0000
   6779 O         141.8755  114.6592   72.6545 O.3     968      M_A    0.0000
   6780 H         139.9552  116.1136   73.5736 H       968      M_A    0.0000
   6781 H         139.7392  117.1708   72.1711 H       968      M_A    0.0000
   6782 H         142.0676  116.6969   72.3010 H       968      M_A    0.0000
   6783 H         141.4718  115.7317   70.9218 H       968      M_A    0.0000
   6784 C         142.9040  114.0462   71.9067 C.3     969      M_A    0.0000
   6785 C         143.0148  112.5505   72.1755 C.3     969      M_A    0.0000
   6786 O         143.8762  111.9722   71.1960 O.3     969      M_A    0.0000
   6787 H         143.8539  114.5420   72.1367 H       969      M_A    0.0000
   6788 H         142.6952  114.2041   70.8426 H       969      M_A    0.0000
   6789 H         142.0090  112.1149   72.0945 H       969      M_A    0.0000
   6790 H         143.4045  112.3528   73.1830 H       969      M_A    0.0000
   6791 C         143.4675  110.6572   70.8856 C.3     970      M_A    0.0000
   6792 C         144.2987  109.5991   71.6003 C.3     970      M_A    0.0000
   6793 O         145.4393  109.2949   70.7988 O.3     970      M_A    0.0000
   6794 H         143.5268  110.5139   69.8006 H       970      M_A    0.0000
   6795 H         142.4175  110.5461   71.1790 H       970      M_A    0.0000
   6796 H         143.6756  108.7019   71.7218 H       970      M_A    0.0000
   6797 H         144.6175  109.9439   72.5930 H       970      M_A    0.0000
   6798 C         146.6154  109.8047   71.3902 C.3     971      M_A    0.0000
   6799 C         147.1826  111.0001   70.6348 C.3     971      M_A    0.0000
   6800 O         148.5971  111.0291   70.8200 O.3     971      M_A    0.0000
   6801 H         147.3616  109.0038   71.4437 H       971      M_A    0.0000
   6802 H         146.3794  110.1087   72.4162 H       971      M_A    0.0000
   6803 H         146.7310  111.9113   71.0516 H       971      M_A    0.0000
   6804 H         146.9444  110.9466   69.5641 H       971      M_A    0.0000
   6805 C         148.9572  110.3769   72.0190 C.3     972      M_A    0.0000
   6806 C         150.3184  110.8181   72.5423 C.3     972      M_A    0.0000
   6807 O         151.3317  110.0788   71.8621 O.3     972      M_A    0.0000
   6808 H         148.9513  109.2941   71.8496 H       972      M_A    0.0000
   6809 H         148.1942  110.5998   72.7733 H       972      M_A    0.0000
   6810 H         150.3553  110.6017   73.6192 H       972      M_A    0.0000
   6811 H         150.4744  111.8949   72.3936 H       972      M_A    0.0000
   6812 C         152.5955  110.6812   72.0426 C.3     973      M_A    0.0000
   6813 C         152.5938  112.1655   71.6988 C.3     973      M_A    0.0000
   6814 O         153.9443  112.6206   71.6292 O.3     973      M_A    0.0000
   6815 H         153.3320  110.1523   71.4270 H       973      M_A    0.0000
   6816 H         152.8880  110.5571   73.0915 H       973      M_A    0.0000
   6817 H         152.0589  112.6990   72.4970 H       973      M_A    0.0000
   6818 H         152.0834  112.3547   70.7449 H       973      M_A    0.0000
   6819 C         154.5233  112.6649   72.9158 C.3     974      M_A    0.0000
   6820 C         155.9697  113.1432   72.8935 C.3     974      M_A    0.0000
   6821 O         156.8288  112.0056   72.9542 O.3     974      M_A    0.0000
   6822 H         154.4627  111.6679   73.3668 H       974      M_A    0.0000
   6823 H         153.9302  113.3469   73.5356 H       974      M_A    0.0000
   6824 H         156.1304  113.7819   73.7734 H       974      M_A    0.0000
   6825 H         156.1837  113.7285   71.9892 H       974      M_A    0.0000
   6826 C         158.1558  112.3642   72.6331 C.3     975      M_A    0.0000
   6827 C         158.3254  112.7364   71.1654 C.3     975      M_A    0.0000
   6828 O         159.6056  112.2865   70.7243 O.3     975      M_A    0.0000
   6829 H         158.8206  111.5318   72.8904 H       975      M_A    0.0000
   6830 H         158.4395  113.2210   73.2548 H       975      M_A    0.0000
   6831 H         158.2634  113.8306   71.0826 H       975      M_A    0.0000
   6832 H         157.5359  112.2907   70.5457 H       975      M_A    0.0000
   6833 C         160.4068  111.9059   71.8224 C.3     976      M_A    0.0000
   6834 C         161.8584  112.3431   71.6705 C.3     976      M_A    0.0000
   6835 O         162.7045  111.2795   72.1051 O.3     976      M_A    0.0000
   6836 H         160.3512  110.8180   71.9422 H       976      M_A    0.0000
   6837 H         159.9883  112.3620   72.7268 H       976      M_A    0.0000
   6838 H         162.0148  113.2288   72.3022 H       976      M_A    0.0000
   6839 H         162.0901  112.6069   70.6300 H       976      M_A    0.0000
   6840 C         164.0236  111.7406   72.3050 C.3     977      M_A    0.0000
   6841 C         165.0314  111.0530   71.3923 C.3     977      M_A    0.0000
   6842 O         166.3285  111.1657   71.9759 O.3     977      M_A    0.0000
   6843 H         164.2984  111.5859   73.3546 H       977      M_A    0.0000
   6844 H         164.0430  112.8191   72.1115 H       977      M_A    0.0000
   6845 H         165.0123  111.5633   70.4191 H       977      M_A    0.0000
   6846 H         164.7775  109.9953   71.2409 H       977      M_A    0.0000
   6847 C         167.1653  110.1161   71.5394 C.3     978      M_A    0.0000
   6848 C         168.5224  110.1193   72.2321 C.3     978      M_A    0.0000
   6849 O         169.5360  110.3364   71.2517 O.3     978      M_A    0.0000
   6850 H         167.2958  110.1941   70.4541 H       978      M_A    0.0000
   6851 H         166.6601  109.1659   71.7464 H       978      M_A    0.0000
   6852 H         168.6641  109.1384   72.7073 H       978      M_A    0.0000
   6853 H         168.5748  110.8968   73.0060 H       978      M_A    0.0000
   6854 C         170.8180  110.1253   71.8036 C.3     979      M_A    0.0000
   6855 C         171.7837  111.2639   71.4997 C.3     979      M_A    0.0000
   6856 O         173.1175  110.7985   71.7002 O.3     979      M_A    0.0000
   6857 H         171.2179  109.1794   71.4209 H       979      M_A    0.0000
   6858 H         170.7118  110.0264   72.8898 H       979      M_A    0.0000
   6859 H         171.5661  112.0887   72.1928 H       979      M_A    0.0000
   6860 H         171.6628  111.6272   70.4704 H       979      M_A    0.0000
   6861 C         173.3952  109.7004   70.8578 C.3     980      M_A    0.0000
   6862 C         174.5799  108.8733   71.3413 C.3     980      M_A    0.0000
   6863 O         175.7652  109.3624   70.7156 O.3     980      M_A    0.0000
   6864 H         173.5822  110.0698   69.8431 H       980      M_A    0.0000
   6865 H         172.5047  109.0627   70.8208 H       980      M_A    0.0000
   6866 H         174.4062  107.8278   71.0502 H       980      M_A    0.0000
   6867 H         174.6832  108.9226   72.4335 H       980      M_A    0.0000
   6868 C         176.5416  110.1069   71.6297 C.3     981      M_A    0.0000
   6869 C         178.0340  110.0294   71.3330 C.3     981      M_A    0.0000
   6870 O         178.7228  109.6920   72.5361 O.3     981      M_A    0.0000
   6871 H         176.3395  109.7451   72.6442 H       981      M_A    0.0000
   6872 H         176.2206  111.1535   71.5796 H       981      M_A    0.0000
   6873 H         178.3618  111.0164   70.9773 H       981      M_A    0.0000
   6874 H         178.2492  109.2850   70.5548 H       981      M_A    0.0000
   6875 C         179.9352  109.0288   72.2483 C.3     982      M_A    0.0000
   6876 C         181.1598  109.8759   72.5712 C.3     982      M_A    0.0000
   6877 O         182.2998  109.2898   71.9446 O.3     982      M_A    0.0000
   6878 H         179.9417  108.7446   71.1899 H       982      M_A    0.0000
   6879 H         179.9710  108.1074   72.8404 H       982      M_A    0.0000
   6880 H         181.2922  109.8802   73.6623 H       982      M_A    0.0000
   6881 H         181.0322  110.9111   72.2276 H       982      M_A    0.0000
   6882 C         183.4640  110.0364   72.2273 C.3     983      M_A    0.0000
   6883 C         184.6922  109.5099   71.4952 C.3     983      M_A    0.0000
   6884 O         185.7271  109.2743   72.4487 O.3     983      M_A    0.0000
   6885 H         183.6373  110.0274   73.3094 H       983      M_A    0.0000
   6886 H         183.2865  111.0753   71.9273 H       983      M_A    0.0000
   6887 H         185.0130  110.2756   70.7749 H       983      M_A    0.0000
   6888 H         184.4662  108.5845   70.9488 H       983      M_A    0.0000
   6889 C         186.9917  109.5735   71.8973 C.3     984      M_A    0.0000
   6890 C         187.8379  108.3293   71.6579 C.3     984      M_A    0.0000
   6891 O         189.2107  108.6650   71.8540 O.3     984      M_A    0.0000
   6892 H         187.5168  110.2635   72.5675 H       984      M_A    0.0000
   6893 H         186.8364  110.0898   70.9433 H       984      M_A    0.0000
   6894 H         187.6761  108.0022   70.6212 H       984      M_A    0.0000
   6895 H         187.5498  107.5132   72.3341 H       984      M_A    0.0000
   6896 C         190.0094  107.5015   71.8870 C.3     985      M_A    0.0000
   6897 C         191.4370  107.7812   72.3402 C.3     985      M_A    0.0000
   6898 O         192.3373  107.2632   71.3619 O.3     985      M_A    0.0000
   6899 H         190.0127  107.0448   70.8908 H       985      M_A    0.0000
   6900 H         189.5476  106.7879   72.5787 H       985      M_A    0.0000
   6901 H         191.5945  107.2724   73.3016 H       985      M_A    0.0000
   6902 H         191.6095  108.8569   72.4782 H       985      M_A    0.0000
   6903 C         193.6714  107.3509   71.8149 C.3     986      M_A    0.0000
   6904 C         194.0864  108.7784   72.1485 C.3     986      M_A    0.0000
   6905 O         195.5094  108.8662   72.0921 O.3     986      M_A    0.0000
   6906 H         194.3347  106.9347   71.0482 H       986      M_A    0.0000
   6907 H         193.7702  106.7303   72.7128 H       986      M_A    0.0000
   6908 H         193.7366  109.0056   73.1653 H       986      M_A    0.0000
   6909 H         193.6371  109.4988   71.4519 H       986      M_A    0.0000
   6910 C         195.9563  108.8796   70.7532 C.3     987      M_A    0.0000
   6911 C         196.7682  107.6420   70.3919 C.3     987      M_A    0.0000
   6912 O         198.0851  107.7881   70.9213 O.3     987      M_A    0.0000
   6913 H         196.5530  109.7838   70.5872 H       987      M_A    0.0000
   6914 H         195.0787  108.9355   70.0992 H       987      M_A    0.0000
   6915 H         196.8103  107.5709   69.2959 H       987      M_A    0.0000
   6916 H         196.3031  106.7290   70.7868 H       987      M_A    0.0000
   6917 C         198.8059  106.5798   70.8076 C.3     988      M_A    0.0000
   6918 C         199.9307  106.4678   71.8293 C.3     988      M_A    0.0000
   6919 O         201.1746  106.6891   71.1664 O.3     988      M_A    0.0000
   6920 H         199.2099  106.5017   69.7919 H       988      M_A    0.0000
   6921 H         198.1068  105.7484   70.9524 H       988      M_A    0.0000
   6922 H         199.9063  105.4537   72.2522 H       988      M_A    0.0000
   6923 H         199.8045  107.1929   72.6444 H       988      M_A    0.0000
   6924 C         202.2197  106.8406   72.1031 C.3     989      M_A    0.0000
   6925 C         203.5800  106.4586   71.5332 C.3     989      M_A    0.0000
   6926 O         204.5469  106.5134   72.5811 O.3     989      M_A    0.0000
   6927 H         201.9960  106.2310   72.9860 H       989      M_A    0.0000
   6928 H         202.2462  107.8891   72.4208 H       989      M_A    0.0000
   6929 H         203.8360  107.1843   70.7485 H       989      M_A    0.0000
   6930 H         203.5608  105.4535   71.0911 H       989      M_A    0.0000
   6931 C         205.7420  105.8708   72.1919 C.3     990      M_A    0.0000
   6932 C         206.9763  106.7327   72.4269 C.3     990      M_A    0.0000
   6933 O         208.0935  106.1155   71.7891 O.3     990      M_A    0.0000
   6934 H         205.6693  105.5971   71.1332 H       990      M_A    0.0000
   6935 H         205.8371  104.9443   72.7694 H       990      M_A    0.0000
   6936 H         207.1486  106.7916   73.5108 H       990      M_A    0.0000
   6937 H         206.8346  107.7494   72.0368 H       990      M_A    0.0000
   6938 C         209.1060  107.0639   71.5280 C.3     991      M_A    0.0000
   6939 C         210.3563  106.4375   70.9231 C.3     991      M_A    0.0000
   6940 O         211.3853  106.4239   71.9115 O.3     991      M_A    0.0000
   6941 H         209.3570  107.5811   72.4611 H       991      M_A    0.0000
   6942 H         208.7063  107.8095   70.8314 H       991      M_A    0.0000
   6943 H         210.6660  107.0542   70.0678 H       991      M_A    0.0000
   6944 H         210.1611  105.4163   70.5692 H       991      M_A    0.0000
   6945 C         212.3981  105.5036   71.5654 C.3     992      M_A    0.0000
   6946 C         213.6874  105.7273   72.3458 C.3     992      M_A    0.0000
   6947 O         214.7751  105.1871   71.5969 O.3     992      M_A    0.0000
   6948 H         212.5913  105.5767   70.4891 H       992      M_A    0.0000
   6949 H         212.0272  104.4927   71.7690 H       992      M_A    0.0000
   6950 H         213.5978  105.2037   73.3080 H       992      M_A    0.0000
   6951 H         213.8576  106.7947   72.5399 H       992      M_A    0.0000
   6952 C         215.8292  104.8030   72.4536 C.3     993      M_A    0.0000
   6953 C         217.1930  105.2560   71.9475 C.3     993      M_A    0.0000
   6954 O         218.1287  104.1968   72.1434 O.3     993      M_A    0.0000
   6955 H         215.8130  103.7133   72.5698 H       993      M_A    0.0000
   6956 H         215.6483  105.2454   73.4398 H       993      M_A    0.0000
   6957 H         217.4965  106.1372   72.5299 H       993      M_A    0.0000
   6958 H         217.1541  105.5319   70.8852 H       993      M_A    0.0000
   6959 C         219.4492  104.6534   71.9422 C.3     994      M_A    0.0000
   6960 C         220.3022  103.6605   71.1624 C.3     994      M_A    0.0000
   6961 O         220.7591  102.6478   72.0577 O.3     994      M_A    0.0000
   6962 H         219.9061  104.8591   72.9169 H       994      M_A    0.0000
   6963 H         219.4048  105.5986   71.3894 H       994      M_A    0.0000
   6964 H         221.1598  104.2049   70.7427 H       994      M_A    0.0000
   6965 H         219.7354  103.2065   70.3386 H       994      M_A    0.0000
   6966 C         222.1059  102.8699   72.4173 C.3     995      M_A    0.0000
   6967 C         223.0840  102.1051   71.5341 C.3     995      M_A    0.0000
   6968 O         224.1664  101.6450   72.3419 O.3     995      M_A    0.0000
   6969 H         222.2445  102.5862   73.4668 H       995      M_A    0.0000
   6970 H         222.3111  103.9430   72.3328 H       995      M_A    0.0000
   6971 H         223.4574  102.7946   70.7639 H       995      M_A    0.0000
   6972 H         222.5958  101.2549   71.0394 H       995      M_A    0.0000
   6973 C         224.9517  102.7293   72.7894 C.3     996      M_A    0.0000
   6974 C         225.7085  103.4136   71.6578 C.3     996      M_A    0.0000
   6975 O         227.0085  103.7691   72.1262 O.3     996      M_A    0.0000
   6976 H         225.6544  102.3689   73.5492 H       996      M_A    0.0000
   6977 H         224.2885  103.4583   73.2686 H       996      M_A    0.0000
   6978 H         225.1517  104.3177   71.3742 H       996      M_A    0.0000
   6979 H         225.7909  102.7601   70.7790 H       996      M_A    0.0000
   6980 C         227.6169  104.6974   71.2540 C.3     997      M_A    0.0000
   6981 C         228.7827  104.0978   70.4775 C.3     997      M_A    0.0000
   6982 O         229.9927  104.7062   70.9266 O.3     997      M_A    0.0000
   6983 H         227.9564  105.5616   71.8363 H       997      M_A    0.0000
   6984 H         226.8588  105.0504   70.5458 H       997      M_A    0.0000
   6985 H         228.6277  104.3135   69.4110 H       997      M_A    0.0000
   6986 H         228.8360  103.0093   70.6129 H       997      M_A    0.0000
   6987 C         230.5332  103.9953   72.0198 C.3     998      M_A    0.0000
   6988 C         232.0113  103.6730   71.8384 C.3     998      M_A    0.0000
   6989 O         232.2866  102.4206   72.4642 O.3     998      M_A    0.0000
   6990 H         229.9604  103.0717   72.1608 H       998      M_A    0.0000
   6991 H         230.4079  104.6055   72.9214 H       998      M_A    0.0000
   6992 H         232.5948  104.4696   72.3209 H       998      M_A    0.0000
   6993 H         232.2841  103.6305   70.7755 H       998      M_A    0.0000
   6994 C         233.2823  101.7157   71.7540 C.3     999      M_A    0.0000
   6995 C         234.6308  101.7289   72.4630 C.3     999      M_A    0.0000
   6996 O         235.6374  102.1055   71.5245 O.3     999      M_A    0.0000
   6997 H         233.3785  102.1500   70.7524 H       999      M_A    0.0000
   6998 H         232.9499  100.6781   71.6362 H       999      M_A    0.0000
   6999 H         234.8280  100.7147   72.8377 H       999      M_A    0.0000
   7000 H         234.6294  102.4246   73.3127 H       999      M_A    0.0000
   7001 C         236.8384  101.4065   71.7729 C.3    1000      M_A    0.0000
   7002 C         238.0540  102.3238   71.8184 C.3    1000      M_A    0.0000
   7003 O         239.2024  101.5822   71.4098 O.3    1000      M_A    0.0000
   7004 H         236.9711  100.6426   70.9983 H      1000      M_A    0.0000
   7005 H         236.7426  100.8912   72.7353 H      1000      M_A    0.0000
   7006 H         238.1801  102.6703   72.8538 H      1000      M_A    0.0000
   7007 H         237.9199  103.1984   71.1679 H      1000      M_A    0.0000
   7008 C         240.3721  102.1077   72.0000 C.3    1001      M_A    0.0000
   7009 C         241.5969  101.9661   71.1048 C.3    1001      M_A    0.0000
   7010 O         242.7142  101.5989   71.9127 O.3    1001      M_A    0.0000
   7011 H         240.5444  101.6027   72.9573 H      1001      M_A    0.0000
   7012 H         240.2030  103.1699   72.2099 H      1001      M_A    0.0000
   7013 H         241.7830  102.9382   70.6268 H      1001      M_A    0.0000
   7014 H         241.4352  101.2134   70.3216 H      1001      M_A    0.0000
   7015 C         243.7595  101.0851   71.1153 C.3    1002      M_A    0.0000
   7016 C         245.0819  100.9943   71.8667 C.3    1002      M_A    0.0000
   7017 O         246.1502  101.1315   70.9309 O.3    1002      M_A    0.0000
   7018 H         243.8729  101.7179   70.2277 H      1002      M_A    0.0000
   7019 H         243.4714  100.0839   70.7755 H      1002      M_A    0.0000
   7020 H         245.1312  100.0086   72.3504 H      1002      M_A    0.0000
   7021 H         245.1569  101.7706   72.6399 H      1002      M_A    0.0000
   7022 C         247.3667  101.3946   71.5969 C.3    1003      M_A    0.0000
   7023 C         248.5858  101.0047   70.7704 C.3    1003      M_A    0.0000
   7024 O         249.6811  100.7686   71.6538 O.3    1003      M_A    0.0000
   7025 H         247.3716  100.8579   72.5524 H      1003      M_A    0.0000
   7026 H         247.4119  102.4671   71.8176 H      1003      M_A    0.0000
   7027 H         248.8211  101.8403   70.0962 H      1003      M_A    0.0000
   7028 H         248.3897  100.1088   70.1663 H      1003      M_A    0.0000
   7029 C         250.5940   99.8549   71.0843 C.3    1004      M_A    0.0000
   7030 C         251.9841   99.9514   71.7005 C.3    1004      M_A    0.0000
   7031 O         252.8996  100.3900   70.6979 O.3    1004      M_A    0.0000
   7032 H         250.6471  100.0329   70.0042 H      1004      M_A    0.0000
   7033 H         250.2048   98.8417   71.2357 H      1004      M_A    0.0000
   7034 H         252.2685   98.9512   72.0565 H      1004      M_A    0.0000
   7035 H         251.9972  100.6454   72.5516 H      1004      M_A    0.0000
   7036 C         254.2108   99.9615   70.9971 C.3    1005      M_A    0.0000
   7037 C         254.8759  100.8111   72.0729 C.3    1005      M_A    0.0000
   7038 O         256.2824  100.5737   72.0389 O.3    1005      M_A    0.0000
   7039 H         254.8087   99.9801   70.0788 H      1005      M_A    0.0000
   7040 H         254.1619   98.9222   71.3412 H      1005      M_A    0.0000
   7041 H         254.4677  100.5072   73.0471 H      1005      M_A    0.0000
   7042 H         254.6709  101.8795   71.9226 H      1005      M_A    0.0000
   7043 C         256.8723  101.2258   70.9346 C.3    1006      M_A    0.0000
   7044 C         257.8574  100.3377   70.1848 C.3    1006      M_A    0.0000
   7045 O         259.1526  100.5039   70.7597 O.3    1006      M_A    0.0000
   7046 H         257.3753  102.1340   71.2858 H      1006      M_A    0.0000
   7047 H         256.0732  101.5317   70.2499 H      1006      M_A    0.0000
   7048 H         257.8701  100.6562   69.1329 H      1006      M_A    0.0000
   7049 H         257.5584   99.2818   70.2297 H      1006      M_A    0.0000
   7050 C         260.0460   99.5275   70.2685 C.3    1007      M_A    0.0000
   7051 C         261.0544   99.0732   71.3164 C.3    1007      M_A    0.0000
   7052 O         262.3549   99.0713   70.7294 O.3    1007      M_A    0.0000
   7053 H         260.5676   99.9318   69.3935 H      1007      M_A    0.0000
   7054 H         259.4604   98.6628   69.9366 H      1007      M_A    0.0000
   7055 H         260.7832   98.0555   71.6306 H      1007      M_A    0.0000
   7056 H         261.0399   99.7296   72.1968 H      1007      M_A    0.0000
   7057 C         263.1924   98.1356   71.3741 C.3    1008      M_A    0.0000
   7058 C         264.5607   98.7107   71.7185 C.3    1008      M_A    0.0000
   7059 O         265.5652   97.8836   71.1329 O.3    1008      M_A    0.0000
   7060 H         263.3043   97.2562   70.7297 H      1008      M_A    0.0000
   7061 H         262.6980   97.8112   72.2968 H      1008      M_A    0.0000
   7062 H         264.6646   98.7093   72.8126 H      1008      M_A    0.0000
   7063 H         264.6641   99.7421   71.3558 H      1008      M_A    0.0000
   7064 C         266.6713   97.7516   72.0000 C.3    1009      M_A    0.0000
   7065 C         267.8885   98.5344   71.5236 C.3    1009      M_A    0.0000
   7066 O         269.0280   97.6766   71.5623 O.3    1009      M_A    0.0000
   7067 H         266.9208   96.6890   72.0976 H      1009      M_A    0.0000
   7068 H         266.3762   98.1164   72.9904 H      1009      M_A    0.0000
   7069 H         268.0350   99.3837   72.2056 H      1009      M_A    0.0000
   7070 H         267.7426   98.9207   70.5059 H      1009      M_A    0.0000
   7071 C         270.2186   98.4212   71.4185 C.3    1010      M_A    0.0000
   7072 C         271.3463   97.6114   70.7908 C.3    1010      M_A    0.0000
   7073 O         272.5772   97.9871   71.4068 O.3    1010      M_A    0.0000
   7074 H         270.5248   98.7945   72.4024 H      1010      M_A    0.0000
   7075 H         270.0057   99.2895   70.7847 H      1010      M_A    0.0000
   7076 H         271.3770   97.8461   69.7175 H      1010      M_A    0.0000
   7077 H         271.1792   96.5326   70.9112 H      1010      M_A    0.0000
   7078 C         273.5550   96.9862   71.2202 C.3    1011      M_A    0.0000
   7079 C         274.9440   97.4320   71.6597 C.3    1011      M_A    0.0000
   7080 O         275.9118   96.8195   70.8088 O.3    1011      M_A    0.0000
   7081 H         273.5689   96.6963   70.1633 H      1011      M_A    0.0000
   7082 H         273.2605   96.1061   71.8028 H      1011      M_A    0.0000
   7083 H         275.0946   97.1023   72.6973 H      1011      M_A    0.0000
   7084 H         275.0451   98.5248   71.6190 H      1011      M_A    0.0000
   7085 C         277.1325   97.5272   70.8504 C.3    1012      M_A    0.0000
   7086 C         278.3369   96.6392   70.5639 C.3    1012      M_A    0.0000
   7087 O         279.4597   97.1443   71.2850 O.3    1012      M_A    0.0000
   7088 H         277.2366   97.9978   71.8346 H      1012      M_A    0.0000
   7089 H         277.0911   98.3267   70.1020 H      1012      M_A    0.0000
   7090 H         278.5374   96.6759   69.4839 H      1012      M_A    0.0000
   7091 H         278.1432   95.5971   70.8512 H      1012      M_A    0.0000
   7092 C         280.5398   96.2374   71.2268 C.3    1013      M_A    0.0000
   7093 C         281.8768   96.8941   71.5471 C.3    1013      M_A    0.0000
   7094 O         282.9214   96.1068   70.9771 O.3    1013      M_A    0.0000
   7095 H         280.5709   95.7861   70.2285 H      1013      M_A    0.0000
   7096 H         280.3531   95.4347   71.9491 H      1013      M_A    0.0000
   7097 H         281.9861   96.9274   72.6402 H      1013      M_A    0.0000
   7098 H         281.9227   97.9195   71.1568 H      1013      M_A    0.0000
   7099 C         284.1036   96.2177   71.7405 C.3    1014      M_A    0.0000
   7100 C         285.3536   96.3261   70.8761 C.3    1014      M_A    0.0000
   7101 O         286.4194   95.6330   71.5239 O.3    1014      M_A    0.0000
   7102 H         284.1792   95.3501   72.4058 H      1014      M_A    0.0000
   7103 H         284.0239   97.1124   72.3683 H      1014      M_A    0.0000
   7104 H         285.6057   97.3910   70.7746 H      1014      M_A    0.0000
   7105 H         285.1855   95.9067   69.8751 H      1014      M_A    0.0000
   7106 C         287.6479   95.8902   70.8779 C.3    1015      M_A    0.0000
   7107 C         288.6910   94.8131   71.1482 C.3    1015      M_A    0.0000
   7108 O         289.9893   95.3885   71.0093 O.3    1015      M_A    0.0000
   7109 H         288.0220   96.8676   71.2029 H      1015      M_A    0.0000
   7110 H         287.4629   95.9466   69.7992 H      1015      M_A    0.0000
   7111 H         288.5540   94.0132   70.4071 H      1015      M_A    0.0000
   7112 H         288.5743   94.3863   72.1534 H      1015      M_A    0.0000
   7113 C         290.9093   94.7605   71.8765 C.3    1016      M_A    0.0000
   7114 C         292.3417   95.2293   71.6534 C.3    1016      M_A    0.0000
   7115 O         293.1612   94.0899   71.3960 O.3    1016      M_A    0.0000
   7116 H         290.8420   93.6752   71.7397 H      1016      M_A    0.0000
   7117 H         290.6159   94.9846   72.9083 H      1016      M_A    0.0000
   7118 H         292.6802   95.7358   72.5681 H      1016      M_A    0.0000
   7119 H         292.4055   95.9358   70.8150 H      1016      M_A    0.0000
   7120 C         293.3312   93.3221   72.5682 C.3    1017      M_A    0.0000
   7121 C         294.1777   94.0313   73.6179 C.3    1017      M_A    0.0000
   7122 O         295.5386   93.6363   73.4515 O.3    1017      M_A    0.0000
   7123 H         293.7881   92.3625   72.3008 H      1017      M_A    0.0000
   7124 H         292.3408   93.1135   72.9883 H      1017      M_A    0.0000
   7125 H         293.8167   93.7249   74.6098 H      1017      M_A    0.0000
   7126 H         294.0896   95.1227   73.5325 H      1017      M_A    0.0000
   7127 C         295.8414   93.4512   72.0853 C.3    1018      M_A    0.0000
   7128 C         297.3398   93.3730   71.8206 C.3    1018      M_A    0.0000
   7129 O         297.6239   94.0472   70.5955 O.3    1018      M_A    0.0000
   7130 H         295.3991   94.2720   71.5093 H      1018      M_A    0.0000
   7131 H         295.3701   92.5195   71.7526 H      1018      M_A    0.0000
   7132 H         297.6157   92.3124   71.7377 H      1018      M_A    0.0000
   7133 H         297.9150   93.8239   72.6403 H      1018      M_A    0.0000
   7134 C         298.9321   93.7521   70.1549 C.3    1019      M_A    0.0000
   7135 C         299.9785   93.9519   71.2442 C.3    1019      M_A    0.0000
   7136 O         301.2563   93.5893   70.7231 O.3    1019      M_A    0.0000
   7137 H         299.1650   94.3812   69.2883 H      1019      M_A    0.0000
   7138 H         298.9550   92.7077   69.8237 H      1019      M_A    0.0000
   7139 H         299.7188   93.2988   72.0891 H      1019      M_A    0.0000
   7140 H         299.9969   94.9922   71.5954 H      1019      M_A    0.0000
   7141 C         301.8336   92.5550   71.4911 C.3    1020      M_A    0.0000
   7142 C         303.3566   92.5793   71.4596 C.3    1020      M_A    0.0000
   7143 O         303.8268   91.2899   71.0693 O.3    1020      M_A    0.0000
   7144 H         301.4641   91.5911   71.1230 H      1020      M_A    0.0000
   7145 H         301.4950   92.6674   72.5273 H      1020      M_A    0.0000
   7146 H         303.7140   92.8184   72.4711 H      1020      M_A    0.0000
   7147 H         303.7304   93.3426   70.7641 H      1020      M_A    0.0000
   7148 C         302.7542   90.4723   70.6527 C.3    1021      M_A    0.0000
   7149 C         301.4027   90.9845   71.1348 C.3    1021      M_A    0.0000
   7150 O         300.9846   90.1950   72.2474 O.3    1021      M_A    0.0000
   7151 H         302.9229   89.4526   71.0171 H      1021      M_A    0.0000
   7152 H         302.7542   90.4383   69.5573 H      1021      M_A    0.0000
   7153 H         300.6849   90.8792   70.3093 H      1021      M_A    0.0000
   7154 H         301.4557   92.0428   71.4232 H      1021      M_A    0.0000
   7155 C         299.6536   90.5007   72.6045 C.3    1022      M_A    0.0000
   7156 C         298.7250   89.2976   72.4969 C.3    1022      M_A    0.0000
   7157 O         298.1476   89.2804   71.1923 O.3    1022      M_A    0.0000
   7158 H         299.2924   91.3142   71.9651 H      1022      M_A    0.0000
   7159 H         299.6506   90.8638   73.6385 H      1022      M_A    0.0000
   7160 H         297.9365   89.4077   73.2546 H      1022      M_A    0.0000
   7161 H         299.2634   88.3586   72.6824 H      1022      M_A    0.0000
   7162 C         296.9197   89.9768   71.1804 C.3    1023      M_A    0.0000
   7163 C         296.3311   90.1068   69.7811 C.3    1023      M_A    0.0000
   7164 O         294.9942   90.5932   69.8904 O.3    1023      M_A    0.0000
   7165 H         297.0703   90.9694   71.6198 H      1023      M_A    0.0000
   7166 H         296.2118   89.4348   71.8175 H      1023      M_A    0.0000
   7167 H         296.3309   89.1100   69.3182 H      1023      M_A    0.0000
   7168 H         296.9284   90.7851   69.1571 H      1023      M_A    0.0000
   7169 C         294.8788   91.4989   70.9670 C.3    1024      M_A    0.0000
   7170 C         293.9200   91.0108   72.0458 C.3    1024      M_A    0.0000
   7171 O         292.5829   91.1587   71.5705 O.3    1024      M_A    0.0000
   7172 H         294.5487   92.4698   70.5803 H      1024      M_A    0.0000
   7173 H         295.8729   91.6368   71.4073 H      1024      M_A    0.0000
   7174 H         294.0707   91.6308   72.9407 H      1024      M_A    0.0000
   7175 H         294.1125   89.9617   72.3073 H      1024      M_A    0.0000
   7176 C         292.5688   91.7867   70.3063 C.3    1025      M_A    0.0000
   7177 C         291.2796   92.5559   70.0462 C.3    1025      M_A    0.0000
   7178 O         290.9461   92.4359   68.6641 O.3    1025      M_A    0.0000
   7179 H         292.7175   91.0267   69.5308 H      1025      M_A    0.0000
   7180 H         293.4156   92.4808   70.2587 H      1025      M_A    0.0000
   7181 H         291.4559   93.6108   70.2993 H      1025      M_A    0.0000
   7182 H         290.4559   92.1775   70.6662 H      1025      M_A    0.0000
   7183 C         289.5458   92.4425   68.4859 C.3    1026      M_A    0.0000
   7184 C         288.8812   91.1733   69.0043 C.3    1026      M_A    0.0000
   7185 O         287.4909   91.2224   68.6871 O.3    1026      M_A    0.0000
   7186 H         289.3241   92.5762   67.4209 H      1026      M_A    0.0000
   7187 H         289.1359   93.3059   69.0220 H      1026      M_A    0.0000
   7188 H         289.0162   91.1396   70.0946 H      1026      M_A    0.0000
   7189 H         289.3358   90.2753   68.5649 H      1026      M_A    0.0000
   7190 C         286.8956   92.3816   69.2298 C.3    1027      M_A    0.0000
   7191 C         285.8902   92.0659   70.3303 C.3    1027      M_A    0.0000
   7192 O         284.5799   92.3690   69.8537 O.3    1027      M_A    0.0000
   7193 H         286.4084   92.9413   68.4233 H      1027      M_A    0.0000
   7194 H         287.6898   93.0145   69.6415 H      1027      M_A    0.0000
   7195 H         286.1282   92.6954   71.1992 H      1027      M_A    0.0000
   7196 H         285.9460   91.0117   70.6328 H      1027      M_A    0.0000
   7197 C         284.1790   93.6541   70.2784 C.3    1028      M_A    0.0000
   7198 C         282.9506   93.6190   71.1790 C.3    1028      M_A    0.0000
   7199 O         281.8088   93.3036   70.3836 O.3    1028      M_A    0.0000
   7200 H         283.9822   94.2741   69.3963 H      1028      M_A    0.0000
   7201 H         285.0116   94.1096   70.8262 H      1028      M_A    0.0000
   7202 H         282.8305   94.6143   71.6295 H      1028      M_A    0.0000
   7203 H         283.0648   92.8796   71.9830 H      1028      M_A    0.0000
   7204 C         280.7172   92.9372   71.2000 C.3    1029      M_A    0.0000
   7205 C         279.6835   92.0989   70.4583 C.3    1029      M_A    0.0000
   7206 O         278.4766   92.0822   71.2192 O.3    1029      M_A    0.0000
   7207 H         280.2508   93.8456   71.5978 H      1029      M_A    0.0000
   7208 H         281.1021   92.3615   72.0494 H      1029      M_A    0.0000
   7209 H         280.0797   91.0783   70.3609 H      1029      M_A    0.0000
   7210 H         279.4897   92.4991   69.4541 H      1029      M_A    0.0000
   7211 C         278.2802   93.3187   71.8712 C.3    1030      M_A    0.0000
   7212 C         276.8949   93.4418   72.4933 C.3    1030      M_A    0.0000
   7213 O         275.9274   93.5069   71.4466 O.3    1030      M_A    0.0000
   7214 H         278.4440   94.1292   71.1519 H      1030      M_A    0.0000
   7215 H         279.0361   93.4151   72.6588 H      1030      M_A    0.0000
   7216 H         276.8691   94.3671   73.0859 H      1030      M_A    0.0000
   7217 H         276.6765   92.5931   73.1551 H      1030      M_A    0.0000
   7218 C         276.3646   92.7823   70.3168 C.3    1031      M_A    0.0000
   7219 C         275.6605   93.2103   69.0352 C.3    1031      M_A    0.0000
   7220 O         274.4940   92.4067   68.8637 O.3    1031      M_A    0.0000
   7221 H         276.2034   91.7132   70.4965 H      1031      M_A    0.0000
   7222 H         277.4429   92.9417   70.2031 H      1031      M_A    0.0000
   7223 H         276.3529   93.0502   68.1968 H      1031      M_A    0.0000
   7224 H         275.3841   94.2728   69.0661 H      1031      M_A    0.0000
   7225 C         273.3419   93.2152   68.7564 C.3    1032      M_A    0.0000
   7226 C         272.1232   92.5941   69.4274 C.3    1032      M_A    0.0000
   7227 O         270.9662   92.9047   68.6523 O.3    1032      M_A    0.0000
   7228 H         273.1354   93.3999   67.6960 H      1032      M_A    0.0000
   7229 H         273.5560   94.1815   69.2269 H      1032      M_A    0.0000
   7230 H         272.0294   93.0294   70.4323 H      1032      M_A    0.0000
   7231 H         272.2307   91.5054   69.5234 H      1032      M_A    0.0000
   7232 C         269.9196   92.0000   68.9329 C.3    1033      M_A    0.0000
   7233 C         268.5927   92.4270   68.3178 C.3    1033      M_A    0.0000
   7234 O         267.7483   92.9275   69.3534 O.3    1033      M_A    0.0000
   7235 H         269.8171   91.9017   70.0197 H      1033      M_A    0.0000
   7236 H         270.1991   91.0180   68.5349 H      1033      M_A    0.0000
   7237 H         268.1330   91.5432   67.8534 H      1033      M_A    0.0000
   7238 H         268.7379   93.1952   67.5465 H      1033      M_A    0.0000
   7239 C         266.3886   92.7795   69.0042 C.3    1034      M_A    0.0000
   7240 C         265.8879   93.9005   68.1019 C.3    1034      M_A    0.0000
   7241 O         264.5571   94.2396   68.4891 O.3    1034      M_A    0.0000
   7242 H         265.7893   92.7372   69.9209 H      1034      M_A    0.0000
   7243 H         266.2701   91.8219   68.4847 H      1034      M_A    0.0000
   7244 H         265.8949   93.5324   67.0663 H      1034      M_A    0.0000
   7245 H         266.5354   94.7852   68.1660 H      1034      M_A    0.0000
   7246 C         263.9302   95.0184   67.4926 C.3    1035      M_A    0.0000
   7247 C         262.9194   96.0039   68.0658 C.3    1035      M_A    0.0000
   7248 O         261.9366   96.2826   67.0697 O.3    1035      M_A    0.0000
   7249 H         263.4403   94.3499   66.7756 H      1035      M_A    0.0000
   7250 H         264.7056   95.5741   66.9532 H      1035      M_A    0.0000
   7251 H         263.4560   96.9256   68.3315 H      1035      M_A    0.0000
   7252 H         262.4378   95.6038   68.9680 H      1035      M_A    0.0000
   7253 C         261.0421   95.1990   66.9338 C.3    1036      M_A    0.0000
   7254 C         259.9196   95.4838   65.9438 C.3    1036      M_A    0.0000
   7255 O         258.8040   96.0149   66.6573 O.3    1036      M_A    0.0000
   7256 H         260.6247   94.9578   67.9181 H      1036      M_A    0.0000
   7257 H         261.6096   94.3267   66.5903 H      1036      M_A    0.0000
   7258 H         259.6407   94.5353   65.4637 H      1036      M_A    0.0000
   7259 H         260.2408   96.1909   65.1673 H      1036      M_A    0.0000
   7260 C         258.7898   97.4246   66.5845 C.3    1037      M_A    0.0000
   7261 C         257.5236   97.9669   65.9334 C.3    1037      M_A    0.0000
   7262 O         257.8945   98.8109   64.8443 O.3    1037      M_A    0.0000
   7263 H         259.6729   97.7602   66.0290 H      1037      M_A    0.0000
   7264 H         258.8668   97.8215   67.6030 H      1037      M_A    0.0000
   7265 H         256.9751   98.5479   66.6881 H      1037      M_A    0.0000
   7266 H         256.8775   97.1539   65.5763 H      1037      M_A    0.0000
   7267 C         257.8692  100.1677   65.2330 C.3    1038      M_A    0.0000
   7268 C         256.5412  100.8448   64.9180 C.3    1038      M_A    0.0000
   7269 O         256.4565  101.0529   63.5090 O.3    1038      M_A    0.0000
   7270 H         258.6894  100.6954   64.7331 H      1038      M_A    0.0000
   7271 H         258.0498  100.2187   66.3127 H      1038      M_A    0.0000
   7272 H         256.5191  101.8107   65.4418 H      1038      M_A    0.0000
   7273 H         255.6918  100.2386   65.2605 H      1038      M_A    0.0000
   7274 C         255.1525  101.4479   63.1400 C.3    1039      M_A    0.0000
   7275 C         255.1476  102.5681   62.1073 C.3    1039      M_A    0.0000
   7276 O         253.8532  103.1682   62.0893 O.3    1039      M_A    0.0000
   7277 H         254.6088  101.7611   64.0386 H      1039      M_A    0.0000
   7278 H         254.6345  100.5760   62.7248 H      1039      M_A    0.0000
   7279 H         255.3700  102.1266   61.1256 H      1039      M_A    0.0000
   7280 H         255.9102  103.3250   62.3343 H      1039      M_A    0.0000
   7281 C         253.4034  103.4247   63.4026 C.3    1040      M_A    0.0000
   7282 C         252.3181  104.4927   63.4542 C.3    1040      M_A    0.0000
   7283 O         251.2759  104.0445   64.3196 O.3    1040      M_A    0.0000
   7284 H         254.2586  103.7260   64.0182 H      1040      M_A    0.0000
   7285 H         253.0071  102.4912   63.8178 H      1040      M_A    0.0000
   7286 H         251.9273  104.6300   62.4362 H      1040      M_A    0.0000
   7287 H         252.7171  105.4517   63.8110 H      1040      M_A    0.0000
   7288 C         251.4954  104.4935   65.6398 C.3    1041      M_A    0.0000
   7289 C         250.4061  105.4406   66.1274 C.3    1041      M_A    0.0000
   7290 O         251.0237  106.5924   66.6997 O.3    1041      M_A    0.0000
   7291 H         252.4732  104.9860   65.6893 H      1041      M_A    0.0000
   7292 H         251.5300  103.6183   66.2984 H      1041      M_A    0.0000
   7293 H         249.8142  104.9146   66.8897 H      1041      M_A    0.0000
   7294 H         249.7392  105.7394   65.3076 H      1041      M_A    0.0000
   7295 C         252.0620  107.0668   65.8693 C.3    1042      M_A    0.0000
   7296 C         252.7475  108.3047   66.4341 C.3    1042      M_A    0.0000
   7297 O         252.3158  109.4450   65.6930 O.3    1042      M_A    0.0000
   7298 H         251.6516  107.2830   64.8764 H      1042      M_A    0.0000
   7299 H         252.8031  106.2675   65.7562 H      1042      M_A    0.0000
   7300 H         253.8329  108.1735   66.3221 H      1042      M_A    0.0000
   7301 H         252.5167  108.4389   67.4995 H      1042      M_A    0.0000
   7302 C         251.8827  110.4703   66.5613 C.3    1043      M_A    0.0000
   7303 C         250.4797  110.9654   66.2327 C.3    1043      M_A    0.0000
   7304 O         250.5050  112.3895   66.1488 O.3    1043      M_A    0.0000
   7305 H         252.5963  111.3006   66.5139 H      1043      M_A    0.0000
   7306 H         251.8939  110.0800   67.5853 H      1043      M_A    0.0000
   7307 H         249.8088  110.6493   67.0438 H      1043      M_A    0.0000
   7308 H         250.1160  110.5392   65.2881 H      1043      M_A    0.0000
   7309 C         249.5952  112.8484   65.1720 C.3    1044      M_A    0.0000
   7310 C         248.3412  113.4643   65.7798 C.3    1044      M_A    0.0000
   7311 O         247.3367  113.5477   64.7699 O.3    1044      M_A    0.0000
   7312 H         249.3252  112.0118   64.5175 H      1044      M_A    0.0000
   7313 H         250.1021  113.6012   64.5578 H      1044      M_A    0.0000
   7314 H         248.5965  114.4712   66.1389 H      1044      M_A    0.0000
   7315 H         247.9741  112.8703   66.6275 H      1044      M_A    0.0000
   7316 C         246.0863  113.8787   65.3354 C.3    1045      M_A    0.0000
   7317 C         245.1504  114.5520   64.3393 C.3    1045      M_A    0.0000
   7318 O         245.1145  115.9507   64.6188 O.3    1045      M_A    0.0000
   7319 H         246.2496  114.5317   66.2002 H      1045      M_A    0.0000
   7320 H         245.6191  112.9562   65.6984 H      1045      M_A    0.0000
   7321 H         244.1487  114.1182   64.4670 H      1045      M_A    0.0000
   7322 H         245.4785  114.3833   63.3049 H      1045      M_A    0.0000
   7323 C         244.4629  116.6508   63.5805 C.3    1046      M_A    0.0000
   7324 C         244.2929  118.1334   63.8876 C.3    1046      M_A    0.0000
   7325 O         243.2564  118.6566   63.0582 O.3    1046      M_A    0.0000
   7326 H         243.4857  116.1887   63.3996 H      1046      M_A    0.0000
   7327 H         245.0575  116.5405   62.6666 H      1046      M_A    0.0000
   7328 H         245.2431  118.6383   63.6639 H      1046      M_A    0.0000
   7329 H         244.0471  118.2974   64.9454 H      1046      M_A    0.0000
   7330 C         242.0115  118.6036   63.7214 C.3    1047      M_A    0.0000
   7331 C         240.8327  118.5630   62.7569 C.3    1047      M_A    0.0000
   7332 O         240.1218  119.7965   62.8509 O.3    1047      M_A    0.0000
   7333 H         241.9257  119.4714   64.3853 H      1047      M_A    0.0000
   7334 H         241.9938  117.7036   64.3464 H      1047      M_A    0.0000
   7335 H         240.1796  117.7301   63.0528 H      1047      M_A    0.0000
   7336 H         241.1667  118.3991   61.7236 H      1047      M_A    0.0000
   7337 C         238.7473  119.6014   62.5955 C.3    1048      M_A    0.0000
   7338 C         238.0938  120.8112   61.9391 C.3    1048      M_A    0.0000
   7339 O         237.1614  121.3814   62.8563 O.3    1048      M_A    0.0000
   7340 H         238.2412  119.3647   63.5383 H      1048      M_A    0.0000
   7341 H         238.6411  118.7343   61.9340 H      1048      M_A    0.0000
   7342 H         237.5695  120.4667   61.0367 H      1048      M_A    0.0000
   7343 H         238.8415  121.5610   61.6478 H      1048      M_A    0.0000
   7344 C         236.0503  121.9176   62.1702 C.3    1049      M_A    0.0000
   7345 C         235.5372  123.2070   62.7991 C.3    1049      M_A    0.0000
   7346 O         234.1621  123.0349   63.1386 O.3    1049      M_A    0.0000
   7347 H         235.2524  121.1667   62.1452 H      1049      M_A    0.0000
   7348 H         236.3504  122.1187   61.1356 H      1049      M_A    0.0000
   7349 H         235.6429  124.0122   62.0585 H      1049      M_A    0.0000
   7350 H         236.1153  123.4733   63.6942 H      1049      M_A    0.0000
   7351 C         233.5541  124.2806   63.4057 C.3    1050      M_A    0.0000
   7352 C         232.2325  124.1418   64.1511 C.3    1050      M_A    0.0000
   7353 O         231.1886  123.9441   63.1987 O.3    1050      M_A    0.0000
   7354 H         233.3992  124.8103   62.4589 H      1050      M_A    0.0000
   7355 H         234.2458  124.8770   64.0114 H      1050      M_A    0.0000
   7356 H         232.0585  125.0716   64.7108 H      1050      M_A    0.0000
   7357 H         232.2590  123.3034   64.8599 H      1050      M_A    0.0000
   7358 C         230.8998  122.5702   63.0524 C.3    1051      M_A    0.0000
   7359 C         229.4044  122.2787   63.0701 C.3    1051      M_A    0.0000
   7360 O         229.2144  120.8669   63.1513 O.3    1051      M_A    0.0000
   7361 H         231.4017  122.0148   63.8528 H      1051      M_A    0.0000
   7362 H         231.3193  122.2311   62.0985 H      1051      M_A    0.0000
   7363 H         228.9720  122.6621   62.1352 H      1051      M_A    0.0000
   7364 H         228.9101  122.7742   63.9164 H      1051      M_A    0.0000
   7365 C         230.4144  120.1838   62.8579 C.3    1052      M_A    0.0000
   7366 C         230.1753  118.7687   62.3464 C.3    1052      M_A    0.0000
   7367 O         230.1663  117.8754   63.4590 O.3    1052      M_A    0.0000
   7368 H         231.0380  120.1588   63.7587 H      1052      M_A    0.0000
   7369 H         230.9556  120.7538   62.0942 H      1052      M_A    0.0000
   7370 H         230.9974  118.5100   61.6644 H      1052      M_A    0.0000
   7371 H         229.2265  118.6963   61.7981 H      1052      M_A    0.0000
   7372 C         229.4315  116.7087   63.1568 C.3    1053      M_A    0.0000
   7373 C         227.9333  116.9672   63.0557 C.3    1053      M_A    0.0000
   7374 O         227.2776  115.7401   62.7391 O.3    1053      M_A    0.0000
   7375 H         229.6328  115.9534   63.9250 H      1053      M_A    0.0000
   7376 H         229.7920  116.3144   62.2000 H      1053      M_A    0.0000
   7377 H         227.7679  117.6990   62.2526 H      1053      M_A    0.0000
   7378 H         227.5337  117.3764   63.9933 H      1053      M_A    0.0000
   7379 C         227.7791  114.6866   63.5336 C.3    1054      M_A    0.0000
   7380 C         227.7471  113.3428   62.8162 C.3    1054      M_A    0.0000
   7381 O         226.5585  112.6501   63.1947 O.3    1054      M_A    0.0000
   7382 H         227.1970  114.6330   64.4606 H      1054      M_A    0.0000
   7383 H         228.8143  114.9235   63.8039 H      1054      M_A    0.0000
   7384 H         228.6311  112.7692   63.1288 H      1054      M_A    0.0000
   7385 H         227.7772  113.4704   61.7258 H      1054      M_A    0.0000
   7386 C         226.6831  111.2676   62.9384 C.3    1055      M_A    0.0000
   7387 C         226.0107  110.8479   61.6372 C.3    1055      M_A    0.0000
   7388 O         224.6956  110.3795   61.9320 O.3    1055      M_A    0.0000
   7389 H         226.2560  110.7107   63.7802 H      1055      M_A    0.0000
   7390 H         227.7500  111.0234   62.8850 H      1055      M_A    0.0000
   7391 H         226.6063  110.0385   61.1922 H      1055      M_A    0.0000
   7392 H         225.9620  111.6823   60.9248 H      1055      M_A    0.0000
   7393 C         223.7479  111.4117   61.7615 C.3    1056      M_A    0.0000
   7394 C         222.3150  110.9323   61.9572 C.3    1056      M_A    0.0000
   7395 O         221.4513  111.7293   61.1480 O.3    1056      M_A    0.0000
   7396 H         223.8682  111.8421   60.7608 H      1056      M_A    0.0000
   7397 H         223.9644  112.2001   62.4911 H      1056      M_A    0.0000
   7398 H         222.0563  111.0576   63.0180 H      1056      M_A    0.0000
   7399 H         222.2077  109.8723   61.6910 H      1056      M_A    0.0000
   7400 C         220.1513  111.1802   61.1142 C.3    1057      M_A    0.0000
   7401 C         219.0621  112.2441   61.1720 C.3    1057      M_A    0.0000
   7402 O         217.8336  111.6213   61.5442 O.3    1057      M_A    0.0000
   7403 H         220.0397  110.4804   61.9502 H      1057      M_A    0.0000
   7404 H         220.0445  110.6087   60.1853 H      1057      M_A    0.0000
   7405 H         218.9687  112.6900   60.1718 H      1057      M_A    0.0000
   7406 H         219.3146  113.0366   61.8891 H      1057      M_A    0.0000
   7407 C         216.9702  112.5505   62.1635 C.3    1058      M_A    0.0000
   7408 C         215.4987  112.2073   61.9672 C.3    1058      M_A    0.0000
   7409 O         214.7932  113.3984   61.6218 O.3    1058      M_A    0.0000
   7410 H         217.1805  113.5500   61.7661 H      1058      M_A    0.0000
   7411 H         217.1943  112.5650   63.2361 H      1058      M_A    0.0000
   7412 H         215.1140  111.8048   62.9148 H      1058      M_A    0.0000
   7413 H         215.3657  111.4503   61.1828 H      1058      M_A    0.0000
   7414 C         213.3992  113.1773   61.6440 C.3    1059      M_A    0.0000
   7415 C         212.6476  114.0633   60.6584 C.3    1059      M_A    0.0000
   7416 O         211.2490  113.9532   60.9187 O.3    1059      M_A    0.0000
   7417 H         213.0291  113.3469   62.6616 H      1059      M_A    0.0000
   7418 H         213.2145  112.1265   61.3937 H      1059      M_A    0.0000
   7419 H         212.8693  113.7064   59.6428 H      1059      M_A    0.0000
   7420 H         212.9643  115.1116   60.7407 H      1059      M_A    0.0000
   7421 C         211.0022  112.9944   61.9249 C.3    1060      M_A    0.0000
   7422 C         209.6295  112.3461   61.7952 C.3    1060      M_A    0.0000
   7423 O         208.6965  113.0901   62.5774 O.3    1060      M_A    0.0000
   7424 H         211.1014  113.4748   62.9049 H      1060      M_A    0.0000
   7425 H         211.7727  112.2182   61.8554 H      1060      M_A    0.0000
   7426 H         209.7018  111.3175   62.1756 H      1060      M_A    0.0000
   7427 H         209.3002  112.3124   60.7481 H      1060      M_A    0.0000
   7428 C         208.0075  114.0260   61.7762 C.3    1061      M_A    0.0000
   7429 C         206.5723  114.2500   62.2362 C.3    1061      M_A    0.0000
   7430 O         205.8449  114.8734   61.1788 O.3    1061      M_A    0.0000
   7431 H         208.0206  113.6807   60.7361 H      1061      M_A    0.0000
   7432 H         208.5493  114.9777   61.8177 H      1061      M_A    0.0000
   7433 H         206.5958  114.9096   63.1150 H      1061      M_A    0.0000
   7434 H         206.0903  113.3043   62.5179 H      1061      M_A    0.0000
   7435 C         204.7853  115.6516   61.6927 C.3    1062      M_A    0.0000
   7436 C         203.5674  115.6642   60.7773 C.3    1062      M_A    0.0000
   7437 O         202.9671  116.9574   60.8321 O.3    1062      M_A    0.0000
   7438 H         205.1434  116.6741   61.8579 H      1062      M_A    0.0000
   7439 H         204.4972  115.2387   62.6661 H      1062      M_A    0.0000
   7440 H         202.8598  114.9065   61.1422 H      1062      M_A    0.0000
   7441 H         203.8422  115.4205   59.7424 H      1062      M_A    0.0000
   7442 C         201.9900  117.0976   59.8231 C.3    1063      M_A    0.0000
   7443 C         202.5914  117.1371   58.4237 C.3    1063      M_A    0.0000
   7444 O         201.5335  117.2609   57.4744 O.3    1063      M_A    0.0000
   7445 H         201.4135  118.0104   60.0116 H      1063      M_A    0.0000
   7446 H         201.3008  116.2484   59.8927 H      1063      M_A    0.0000
   7447 H         203.1340  116.1954   58.2600 H      1063      M_A    0.0000
   7448 H         203.2951  117.9730   58.3141 H      1063      M_A    0.0000
   7449 C         201.6905  116.3275   56.4272 C.3    1064      M_A    0.0000
   7450 C         201.0024  116.7662   55.1405 C.3    1064      M_A    0.0000
   7451 O         200.0908  115.7450   54.7379 O.3    1064      M_A    0.0000
   7452 H         201.2968  115.3582   56.7537 H      1064      M_A    0.0000
   7453 H         202.7624  116.2038   56.2357 H      1064      M_A    0.0000
   7454 H         201.7753  116.9035   54.3712 H      1064      M_A    0.0000
   7455 H         200.4677  117.7157   55.2764 H      1064      M_A    0.0000
   7456 C         199.8480  115.8115   53.3490 C.3    1065      M_A    0.0000
   7457 C         198.3956  116.1344   53.0208 C.3    1065      M_A    0.0000
   7458 O         197.9954  115.3513   51.8973 O.3    1065      M_A    0.0000
   7459 H         200.1346  114.8573   52.8924 H      1065      M_A    0.0000
   7460 H         200.4924  116.5900   52.9250 H      1065      M_A    0.0000
   7461 H         198.3321  117.2037   52.7745 H      1065      M_A    0.0000
   7462 H         197.7372  115.9299   53.8757 H      1065      M_A    0.0000
   7463 C         197.7778  114.0090   52.2762 C.3    1066      M_A    0.0000
   7464 C         197.1181  113.1871   51.1760 C.3    1066      M_A    0.0000
   7465 O         195.7579  112.9492   51.5356 O.3    1066      M_A    0.0000
   7466 H         197.1607  113.9914   53.1817 H      1066      M_A    0.0000
   7467 H         198.7467  113.5615   52.5252 H      1066      M_A    0.0000
   7468 H         197.6570  112.2326   51.0948 H      1066      M_A    0.0000
   7469 H         197.1665  113.7028   50.2076 H      1066      M_A    0.0000
   7470 C         195.2555  111.8131   50.8653 C.3    1067      M_A    0.0000
   7471 C         194.2385  112.1681   49.7878 C.3    1067      M_A    0.0000
   7472 O         193.2557  111.1355   49.7282 O.3    1067      M_A    0.0000
   7473 H         194.8050  111.1373   51.6011 H      1067      M_A    0.0000
   7474 H         196.0983  111.2871   50.4027 H      1067      M_A    0.0000
   7475 H         194.7697  112.2362   48.8280 H      1067      M_A    0.0000
   7476 H         193.7577  113.1337   49.9939 H      1067      M_A    0.0000
   7477 C         192.1205  111.5675   49.0090 C.3    1068      M_A    0.0000
   7478 C         190.8260  111.3934   49.7936 C.3    1068      M_A    0.0000
   7479 O         189.7245  111.5714   48.9043 O.3    1068      M_A    0.0000
   7480 H         192.0666  111.0136   48.0648 H      1068      M_A    0.0000
   7481 H         192.2517  112.6279   48.7656 H      1068      M_A    0.0000
   7482 H         190.8000  112.1595   50.5811 H      1068      M_A    0.0000
   7483 H         190.7735  110.4024   50.2639 H      1068      M_A    0.0000
   7484 C         188.5786  112.0000   49.6084 C.3    1069      M_A    0.0000
   7485 C         187.3335  111.1991   49.2482 C.3    1069      M_A    0.0000
   7486 O         186.1821  111.9980   49.5161 O.3    1069      M_A    0.0000
   7487 H         188.4143  113.0643   49.4048 H      1069      M_A    0.0000
   7488 H         188.7751  111.8930   50.6812 H      1069      M_A    0.0000
   7489 H         187.3173  110.2958   49.8742 H      1069      M_A    0.0000
   7490 H         187.3441  110.8962   48.1926 H      1069      M_A    0.0000
   7491 C         185.1123  111.1961   49.9690 C.3    1070      M_A    0.0000
   7492 C         183.8013  111.5091   49.2587 C.3    1070      M_A    0.0000
   7493 O         182.7191  111.1589   50.1202 O.3    1070      M_A    0.0000
   7494 H         184.9979  111.3346   51.0501 H      1070      M_A    0.0000
   7495 H         185.3725  110.1461   49.7938 H      1070      M_A    0.0000
   7496 H         183.7596  110.9067   48.3404 H      1070      M_A    0.0000
   7497 H         183.7371  112.5712   48.9867 H      1070      M_A    0.0000
   7498 C         181.5546  110.8823   49.3720 C.3    1071      M_A    0.0000
   7499 C         180.4404  111.8905   49.6241 C.3    1071      M_A    0.0000
   7500 O         179.2044  111.1872   49.7400 O.3    1071      M_A    0.0000
   7501 H         181.2094  109.8706   49.6137 H      1071      M_A    0.0000
   7502 H         181.8182  110.8986   48.3084 H      1071      M_A    0.0000
   7503 H         180.4024  112.5769   48.7667 H      1071      M_A    0.0000
   7504 H         180.6279  112.4745   50.5351 H      1071      M_A    0.0000
   7505 C         178.1186  112.0287   49.4154 C.3    1072      M_A    0.0000
   7506 C         177.5062  112.6971   50.6401 C.3    1072      M_A    0.0000
   7507 O         176.1750  113.1010   50.3233 O.3    1072      M_A    0.0000
   7508 H         177.3593  111.4408   48.8875 H      1072      M_A    0.0000
   7509 H         178.4780  112.8025   48.7276 H      1072      M_A    0.0000
   7510 H         178.1162  113.5771   50.8881 H      1072      M_A    0.0000
   7511 H         177.4982  112.0190   51.5040 H      1072      M_A    0.0000
   7512 C         176.1707  113.9927   49.2290 C.3    1073      M_A    0.0000
   7513 C         175.1080  115.0769   49.3583 C.3    1073      M_A    0.0000
   7514 O         174.0756  114.8215   48.4072 O.3    1073      M_A    0.0000
   7515 H         176.0165  113.4217   48.3064 H      1073      M_A    0.0000
   7516 H         177.1579  114.4646   49.1672 H      1073      M_A    0.0000
   7517 H         175.5825  116.0453   49.1459 H      1073      M_A    0.0000
   7518 H         174.6869  115.1056   50.3722 H      1073      M_A    0.0000
   7519 C         173.3502  116.0000   48.1290 C.3    1074      M_A    0.0000
   7520 C         171.8457  115.8142   48.2820 C.3    1074      M_A    0.0000
   7521 O         171.1830  116.6405   47.3260 O.3    1074      M_A    0.0000
   7522 H         173.5877  116.3312   47.1117 H      1074      M_A    0.0000
   7523 H         173.6865  116.7810   48.8202 H      1074      M_A    0.0000
   7524 H         171.5668  116.1206   49.3000 H      1074      M_A    0.0000
   7525 H         171.5554  114.7649   48.1377 H      1074      M_A    0.0000
   7526 C         169.8127  116.7674   47.6403 C.3    1075      M_A    0.0000
   7527 C         168.9236  116.7705   46.4030 C.3    1075      M_A    0.0000
   7528 O         167.5822  116.4938   46.8028 O.3    1075      M_A    0.0000
   7529 H         169.6640  117.6895   48.2138 H      1075      M_A    0.0000
   7530 H         169.5289  115.9264   48.2830 H      1075      M_A    0.0000
   7531 H         169.2825  115.9841   45.7243 H      1075      M_A    0.0000
   7532 H         168.9689  117.7352   45.8801 H      1075      M_A    0.0000
   7533 C         166.8368  117.6877   46.9106 C.3    1076      M_A    0.0000
   7534 C         165.3571  117.4862   46.6085 C.3    1076      M_A    0.0000
   7535 O         164.6785  117.1837   47.8266 O.3    1076      M_A    0.0000
   7536 H         167.2623  118.4343   46.2306 H      1076      M_A    0.0000
   7537 H         166.9449  118.0684   47.9325 H      1076      M_A    0.0000
   7538 H         165.2645  116.6441   45.9083 H      1076      M_A    0.0000
   7539 H         164.9181  118.3799   46.1451 H      1076      M_A    0.0000
   7540 C         163.8506  118.2583   48.2171 C.3    1077      M_A    0.0000
   7541 C         164.6072  119.5769   48.3177 C.3    1077      M_A    0.0000
   7542 O         164.3342  120.1654   49.5885 O.3    1077      M_A    0.0000
   7543 H         163.3852  118.0163   49.1794 H      1077      M_A    0.0000
   7544 H         163.0494  118.3609   47.4765 H      1077      M_A    0.0000
   7545 H         164.2497  120.2364   47.5144 H      1077      M_A    0.0000
   7546 H         165.6886  119.4280   48.1965 H      1077      M_A    0.0000
   7547 C         163.1750  120.9687   49.5282 C.3    1078      M_A    0.0000
   7548 C         163.4415  122.3406   48.9212 C.3    1078      M_A    0.0000
   7549 O         164.5739  122.2471   48.0583 O.3    1078      M_A    0.0000
   7550 H         162.7650  121.0766   50.5387 H      1078      M_A    0.0000
   7551 H         162.4276  120.4472   48.9197 H      1078      M_A    0.0000
   7552 H         163.6521  123.0406   49.7420 H      1078      M_A    0.0000
   7553 H         162.5706  122.7062   48.3609 H      1078      M_A    0.0000
   7554 C         165.7436  122.6775   48.7209 C.3    1079      M_A    0.0000
   7555 C         166.7825  123.2522   47.7660 C.3    1079      M_A    0.0000
   7556 O         168.0720  123.1280   48.3641 O.3    1079      M_A    0.0000
   7557 H         166.1680  121.8333   49.2762 H      1079      M_A    0.0000
   7558 H         165.4621  123.4468   49.4488 H      1079      M_A    0.0000
   7559 H         166.5451  124.3130   47.6035 H      1079      M_A    0.0000
   7560 H         166.7655  122.7347   46.7975 H      1079      M_A    0.0000
   7561 C         168.2604  121.8272   48.8790 C.3    1080      M_A    0.0000
   7562 C         166.9688  121.2076   49.3981 C.3    1080      M_A    0.0000
   7563 O         166.9810  121.2519   50.8242 O.3    1080      M_A    0.0000
   7564 H         169.0078  121.8672   49.6795 H      1080      M_A    0.0000
   7565 H         168.6635  121.1965   48.0786 H      1080      M_A    0.0000
   7566 H         166.9305  120.1640   49.0555 H      1080      M_A    0.0000
   7567 H         166.0876  121.7378   49.0128 H      1080      M_A    0.0000
   7568 C         165.6684  121.3617   51.3317 C.3    1081      M_A    0.0000
   7569 C         165.0450  122.7250   51.0593 C.3    1081      M_A    0.0000
   7570 O         165.5786  123.6662   51.9895 O.3    1081      M_A    0.0000
   7571 H         165.6868  121.1640   52.4095 H      1081      M_A    0.0000
   7572 H         165.0529  120.5863   50.8616 H      1081      M_A    0.0000
   7573 H         163.9583  122.6359   51.1975 H      1081      M_A    0.0000
   7574 H         165.2435  123.0577   50.0317 H      1081      M_A    0.0000
   7575 C         164.5429  124.4005   52.6066 C.3    1082      M_A    0.0000
   7576 C         163.8137  125.3194   51.6342 C.3    1082      M_A    0.0000
   7577 O         162.7549  124.5869   51.0192 O.3    1082      M_A    0.0000
   7578 H         164.9650  124.9843   53.4325 H      1082      M_A    0.0000
   7579 H         163.8260  123.6901   53.0336 H      1082      M_A    0.0000
   7580 H         164.5340  125.6486   50.8722 H      1082      M_A    0.0000
   7581 H         163.4117  126.2045   52.1450 H      1082      M_A    0.0000
   7582 C         161.5697  124.6892   51.7792 C.3    1083      M_A    0.0000
   7583 C         161.3175  123.4599   52.6432 C.3    1083      M_A    0.0000
   7584 O         160.8757  122.3938   51.8042 O.3    1083      M_A    0.0000
   7585 H         160.7254  124.8524   51.0999 H      1083      M_A    0.0000
   7586 H         161.6518  125.5704   52.4256 H      1083      M_A    0.0000
   7587 H         160.5351  123.7117   53.3730 H      1083      M_A    0.0000
   7588 H         162.2234  123.1602   53.1869 H      1083      M_A    0.0000
   7589 C         161.6260  122.3552   50.6091 C.3    1084      M_A    0.0000
   7590 C         161.0762  121.3527   49.6019 C.3    1084      M_A    0.0000
   7591 O         160.9113  120.0938   50.2528 O.3    1084      M_A    0.0000
   7592 H         162.6673  122.1139   50.8513 H      1084      M_A    0.0000
   7593 H         161.6115  123.3558   50.1625 H      1084      M_A    0.0000
   7594 H         161.8037  121.2593   48.7833 H      1084      M_A    0.0000
   7595 H         160.1176  121.6892   49.1849 H      1084      M_A    0.0000
   7596 C         160.3004  119.1605   49.3876 C.3    1085      M_A    0.0000
   7597 C         158.8633  119.5313   49.0432 C.3    1085      M_A    0.0000
   7598 O         158.3482  118.5650   48.1285 O.3    1085      M_A    0.0000
   7599 H         160.3327  118.1696   49.8547 H      1085      M_A    0.0000
   7600 H         160.8888  119.1125   48.4644 H      1085      M_A    0.0000
   7601 H         158.8715  120.5251   48.5739 H      1085      M_A    0.0000
   7602 H         158.2339  119.5712   49.9423 H      1085      M_A    0.0000
   7603 C         158.4696  119.0221   46.7984 C.3    1086      M_A    0.0000
   7604 C         157.5349  120.1848   46.4888 C.3    1086      M_A    0.0000
   7605 O         156.8230  119.8922   45.2873 O.3    1086      M_A    0.0000
   7606 H         158.2715  118.1871   46.1167 H      1086      M_A    0.0000
   7607 H         159.5052  119.3431   46.6392 H      1086      M_A    0.0000
   7608 H         158.1479  121.0866   46.3513 H      1086      M_A    0.0000
   7609 H         156.8287  120.3605   47.3113 H      1086      M_A    0.0000
   7610 C         155.8579  120.8880   45.0236 C.3    1087      M_A    0.0000
   7611 C         154.7375  120.9089   46.0559 C.3    1087      M_A    0.0000
   7612 O         153.5434  121.3704   45.4258 O.3    1087      M_A    0.0000
   7613 H         155.4446  120.7252   44.0217 H      1087      M_A    0.0000
   7614 H         156.3612  121.8615   45.0217 H      1087      M_A    0.0000
   7615 H         155.0285  121.5997   46.8597 H      1087      M_A    0.0000
   7616 H         154.5738  119.9131   46.4890 H      1087      M_A    0.0000
   7617 C         152.5088  121.5301   46.3728 C.3    1088      M_A    0.0000
   7618 C         151.1743  121.8882   45.7307 C.3    1088      M_A    0.0000
   7619 O         150.6228  123.0108   46.4172 O.3    1088      M_A    0.0000
   7620 H         152.8015  122.3044   47.0910 H      1088      M_A    0.0000
   7621 H         152.3999  120.5891   46.9238 H      1088      M_A    0.0000
   7622 H         150.5054  121.0218   45.8306 H      1088      M_A    0.0000
   7623 H         151.2931  122.1207   44.6639 H      1088      M_A    0.0000
   7624 C         149.2135  123.0021   46.3372 C.3    1089      M_A    0.0000
   7625 C         148.6285  124.3915   46.1166 C.3    1089      M_A    0.0000
   7626 O         147.3412  124.4486   46.7294 O.3    1089      M_A    0.0000
   7627 H         148.8085  122.5641   47.2566 H      1089      M_A    0.0000
   7628 H         148.9213  122.3541   45.5032 H      1089      M_A    0.0000
   7629 H         148.5358  124.5535   45.0335 H      1089      M_A    0.0000
   7630 H         149.2794  125.1708   46.5352 H      1089      M_A    0.0000
   7631 C         146.3941  125.0159   45.8498 C.3    1090      M_A    0.0000
   7632 C         145.6990  126.2357   46.4415 C.3    1090      M_A    0.0000
   7633 O         144.3795  126.3158   45.9045 O.3    1090      M_A    0.0000
   7634 H         145.6544  124.2522   45.5841 H      1090      M_A    0.0000
   7635 H         146.9131  125.3105   44.9306 H      1090      M_A    0.0000
   7636 H         146.2748  127.1273   46.1560 H      1090      M_A    0.0000
   7637 H         145.6564  126.1796   47.5375 H      1090      M_A    0.0000
   7638 C         144.3079  125.6610   44.6560 C.3    1091      M_A    0.0000
   7639 C         145.3966  126.1141   43.6912 C.3    1091      M_A    0.0000
   7640 O         144.9319  127.2628   42.9839 O.3    1091      M_A    0.0000
   7641 H         143.3187  125.8381   44.2186 H      1091      M_A    0.0000
   7642 H         144.4076  124.5832   44.8278 H      1091      M_A    0.0000
   7643 H         145.5903  125.2928   42.9870 H      1091      M_A    0.0000
   7644 H         146.3285  126.3506   44.2220 H      1091      M_A    0.0000
   7645 C         143.8031  127.8198   43.6226 C.3    1092      M_A    0.0000
   7646 C         143.8712  129.3389   43.7175 C.3    1092      M_A    0.0000
   7647 O         142.8311  129.7904   44.5836 O.3    1092      M_A    0.0000
   7648 H         143.7101  127.3832   44.6235 H      1092      M_A    0.0000
   7649 H         142.9114  127.5364   43.0519 H      1092      M_A    0.0000
   7650 H         143.7241  129.7497   42.7088 H      1092      M_A    0.0000
   7651 H         144.8469  129.6729   44.0953 H      1092      M_A    0.0000
   7652 C         142.3078  131.0225   44.1356 C.3    1093      M_A    0.0000
   7653 C         143.3946  132.0090   43.7271 C.3    1093      M_A    0.0000
   7654 O         143.3324  133.1423   44.5918 O.3    1093      M_A    0.0000
   7655 H         141.6861  131.4534   44.9286 H      1093      M_A    0.0000
   7656 H         141.6596  130.8269   43.2739 H      1093      M_A    0.0000
   7657 H         143.2016  132.3176   42.6900 H      1093      M_A    0.0000
   7658 H         144.3912  131.5506   43.7787 H      1093      M_A    0.0000
   7659 C         144.4724  133.9586   44.4279 C.3    1094      M_A    0.0000
   7660 C         144.7036  134.8899   45.6114 C.3    1094      M_A    0.0000
   7661 O         143.9953  136.1069   45.3812 O.3    1094      M_A    0.0000
   7662 H         144.3626  134.5406   43.5059 H      1094      M_A    0.0000
   7663 H         145.3460  133.3078   44.3086 H      1094      M_A    0.0000
   7664 H         145.7819  135.0908   45.6806 H      1094      M_A    0.0000
   7665 H         144.3693  134.4321   46.5521 H      1094      M_A    0.0000
   7666 C         142.7024  136.0465   45.9446 C.3    1095      M_A    0.0000
   7667 C         142.3321  137.3146   46.7037 C.3    1095      M_A    0.0000
   7668 O         141.6033  136.9504   47.8750 O.3    1095      M_A    0.0000
   7669 H         142.6458  135.1781   46.6108 H      1095      M_A    0.0000
   7670 H         141.9818  135.8913   45.1338 H      1095      M_A    0.0000
   7671 H         141.7031  137.9324   46.0475 H      1095      M_A    0.0000
   7672 H         143.2253  137.8906   46.9803 H      1095      M_A    0.0000
   7673 C         140.6039  137.9061   48.1587 C.3    1096      M_A    0.0000
   7674 C         141.1254  139.0741   48.9863 C.3    1096      M_A    0.0000
   7675 O         140.2066  139.3292   50.0477 O.3    1096      M_A    0.0000
   7676 H         139.7782  137.4114   48.6828 H      1096      M_A    0.0000
   7677 H         140.2138  138.2869   47.2080 H      1096      M_A    0.0000
   7678 H         141.1932  139.9529   48.3296 H      1096      M_A    0.0000
   7679 H         142.1225  138.8615   49.3947 H      1096      M_A    0.0000
   7680 C         140.8783  139.8474   51.1759 C.3    1097      M_A    0.0000
   7681 C         140.0713  140.9176   51.9004 C.3    1097      M_A    0.0000
   7682 O         140.9582  141.9527   52.3217 O.3    1097      M_A    0.0000
   7683 H         141.8446  140.2548   50.8576 H      1097      M_A    0.0000
   7684 H         141.0773  139.0202   51.8666 H      1097      M_A    0.0000
   7685 H         139.5963  140.4515   52.7752 H      1097      M_A    0.0000
   7686 H         139.2873  141.3339   51.2537 H      1097      M_A    0.0000
   7687 C         141.7817  141.5058   53.3775 C.3    1098      M_A    0.0000
   7688 C         141.8282  142.4866   54.5425 C.3    1098      M_A    0.0000
   7689 O         143.1703  142.9436   54.7027 O.3    1098      M_A    0.0000
   7690 H         142.7921  141.3319   52.9904 H      1098      M_A    0.0000
   7691 H         141.3919  140.5454   53.7335 H      1098      M_A    0.0000
   7692 H         141.5023  141.9553   55.4477 H      1098      M_A    0.0000
   7693 H         141.1577  143.3400   54.3741 H      1098      M_A    0.0000
   7694 C         143.2040  144.1436   55.4452 C.3    1099      M_A    0.0000
   7695 C         143.9884  145.2463   54.7451 C.3    1099      M_A    0.0000
   7696 O         144.1592  146.3335   55.6531 O.3    1099      M_A    0.0000
   7697 H         143.6383  143.9393   56.4305 H      1099      M_A    0.0000
   7698 H         142.1727  144.4805   55.5995 H      1099      M_A    0.0000
   7699 H         143.4077  145.5748   53.8717 H      1099      M_A    0.0000
   7700 H         144.9672  144.8852   54.4021 H      1099      M_A    0.0000
   7701 C         144.4922  147.5166   54.9587 C.3    1100      M_A    0.0000
   7702 C         143.4625  148.6225   55.1540 C.3    1100      M_A    0.0000
   7703 O         142.9810  149.0306   53.8744 O.3    1100      M_A    0.0000
   7704 H         144.5988  147.2846   53.8930 H      1100      M_A    0.0000
   7705 H         145.4654  147.8654   55.3223 H      1100      M_A    0.0000
   7706 H         143.9595  149.4656   55.6541 H      1100      M_A    0.0000
   7707 H         142.6261  148.2845   55.7804 H      1100      M_A    0.0000
   7708 C         141.5832  149.2248   53.9054 C.3    1101      M_A    0.0000
   7709 C         141.0695  149.9939   52.6947 C.3    1101      M_A    0.0000
   7710 O         139.7373  150.4301   52.9611 O.3    1101      M_A    0.0000
   7711 H         141.3187  149.7537   54.8281 H      1101      M_A    0.0000
   7712 H         141.1008  148.2413   53.9358 H      1101      M_A    0.0000
   7713 H         141.0757  149.3134   51.8317 H      1101      M_A    0.0000
   7714 H         141.7096  150.8569   52.4677 H      1101      M_A    0.0000
   7715 C         139.1000  150.8440   51.7715 C.3    1102      M_A    0.0000
   7716 C         137.8161  151.6218   52.0324 C.3    1102      M_A    0.0000
   7717 O         136.7353  150.9506   51.3866 O.3    1102      M_A    0.0000
   7718 H         138.8882  149.9617   51.1569 H      1102      M_A    0.0000
   7719 H         139.7963  151.4795   51.2126 H      1102      M_A    0.0000
   7720 H         137.9373  152.6295   51.6108 H      1102      M_A    0.0000
   7721 H         137.6143  151.7117   53.1081 H      1102      M_A    0.0000
   7722 C         135.6024  151.7891   51.3078 C.3    1103      M_A    0.0000
   7723 C         135.2783  152.4655   52.6340 C.3    1103      M_A    0.0000
   7724 O         133.9294  152.9290   52.5935 O.3    1103      M_A    0.0000
   7725 H         134.7455  151.1968   50.9671 H      1103      M_A    0.0000
   7726 H         135.7969  152.5582   50.5518 H      1103      M_A    0.0000
   7727 H         135.9635  153.3157   52.7586 H      1103      M_A    0.0000
   7728 H         135.4142  151.7765   53.4783 H      1103      M_A    0.0000
   7729 C         133.0271  151.8532   52.7393 C.3    1104      M_A    0.0000
   7730 C         131.7228  152.0733   51.9831 C.3    1104      M_A    0.0000
   7731 O         130.8224  152.7932   52.8239 O.3    1104      M_A    0.0000
   7732 H         132.8240  151.7023   53.8056 H      1104      M_A    0.0000
   7733 H         133.5114  150.9458   52.3612 H      1104      M_A    0.0000
   7734 H         131.3011  151.0883   51.7384 H      1104      M_A    0.0000
   7735 H         131.8901  152.6270   51.0495 H      1104      M_A    0.0000
   7736 C         130.9125  154.1807   52.5798 C.3    1105      M_A    0.0000
   7737 C         129.6317  154.9247   52.9366 C.3    1105      M_A    0.0000
   7738 O         129.3575  155.8804   51.9132 O.3    1105      M_A    0.0000
   7739 H         131.1596  154.3401   51.5241 H      1105      M_A    0.0000
   7740 H         131.7380  154.5814   53.1789 H      1105      M_A    0.0000
   7741 H         129.7920  155.4375   53.8955 H      1105      M_A    0.0000
   7742 H         128.7844  154.2343   53.0435 H      1105      M_A    0.0000
   7743 C         127.9716  156.1333   51.8245 C.3    1106      M_A    0.0000
   7744 C         127.6525  157.6164   51.6830 C.3    1106      M_A    0.0000
   7745 O         126.2501  157.8025   51.8683 O.3    1106      M_A    0.0000
   7746 H         127.4786  155.7247   52.7140 H      1106      M_A    0.0000
   7747 H         127.5804  155.5982   50.9519 H      1106      M_A    0.0000
   7748 H         127.9422  157.9316   50.6707 H      1106      M_A    0.0000
   7749 H         128.2115  158.2174   52.4128 H      1106      M_A    0.0000
   7750 C         125.7742  158.8543   51.0560 C.3    1107      M_A    0.0000
   7751 C         124.5158  159.5060   51.6155 C.3    1107      M_A    0.0000
   7752 O         123.4589  158.5475   51.6008 O.3    1107      M_A    0.0000
   7753 H         125.5822  158.4662   50.0492 H      1107      M_A    0.0000
   7754 H         126.5636  159.6102   50.9763 H      1107      M_A    0.0000
   7755 H         124.2584  160.3580   50.9706 H      1107      M_A    0.0000
   7756 H         124.6762  159.8736   52.6379 H      1107      M_A    0.0000
   7757 C         122.3468  159.0193   52.3311 C.3    1108      M_A    0.0000
   7758 C         121.2458  157.9747   52.4656 C.3    1108      M_A    0.0000
   7759 O         119.9895  158.5974   52.2016 O.3    1108      M_A    0.0000
   7760 H         121.9558  159.9182   51.8411 H      1108      M_A    0.0000
   7761 H         122.6904  159.3080   53.3309 H      1108      M_A    0.0000
   7762 H         121.2651  157.5908   53.4953 H      1108      M_A    0.0000
   7763 H         121.4030  157.1363   51.7738 H      1108      M_A    0.0000
   7764 C         120.1545  159.7164   51.3570 C.3    1109      M_A    0.0000
   7765 C         119.2546  160.8832   51.7445 C.3    1109      M_A    0.0000
   7766 O         119.8928  162.1003   51.3608 O.3    1109      M_A    0.0000
   7767 H         119.9545  159.4131   50.3230 H      1109      M_A    0.0000
   7768 H         121.2008  160.0372   51.4132 H      1109      M_A    0.0000
   7769 H         119.1171  160.8592   52.8346 H      1109      M_A    0.0000
   7770 H         118.2704  160.8065   51.2632 H      1109      M_A    0.0000
   7771 C         119.2885  163.2041   52.0003 C.3    1110      M_A    0.0000
   7772 C         117.7669  163.1616   51.9337 C.3    1110      M_A    0.0000
   7773 O         117.2918  164.4369   51.5054 O.3    1110      M_A    0.0000
   7774 H         119.6603  164.1274   51.5415 H      1110      M_A    0.0000
   7775 H         119.6010  163.2054   53.0507 H      1110      M_A    0.0000
   7776 H         117.3885  162.9393   52.9414 H      1110      M_A    0.0000
   7777 H         117.4182  162.3797   51.2459 H      1110      M_A    0.0000
   7778 C         115.9917  164.6774   52.0001 C.3    1111      M_A    0.0000
   7779 C         115.1230  163.4258   52.0030 C.3    1111      M_A    0.0000
   7780 O         113.7566  163.8175   52.1272 O.3    1111      M_A    0.0000
   7781 H         115.5214  165.4615   51.3958 H      1111      M_A    0.0000
   7782 H         116.0792  165.0549   53.0252 H      1111      M_A    0.0000
   7783 H         115.4165  162.8100   52.8648 H      1111      M_A    0.0000
   7784 H         115.2641  162.8385   51.0858 H      1111      M_A    0.0000
   7785 C         113.0340  162.8741   52.8891 C.3    1112      M_A    0.0000
   7786 C         113.3592  161.4358   52.5059 C.3    1112      M_A    0.0000
   7787 O         112.5586  160.5591   53.2973 O.3    1112      M_A    0.0000
   7788 H         111.9618  163.0641   52.7651 H      1112      M_A    0.0000
   7789 H         113.2789  163.0270   53.9463 H      1112      M_A    0.0000
   7790 H         114.4242  161.2609   52.7134 H      1112      M_A    0.0000
   7791 H         113.1736  161.2542   51.4388 H      1112      M_A    0.0000
   7792 C         112.1635  161.1900   54.4967 C.3    1113      M_A    0.0000
   7793 C         111.7252  160.1974   55.5663 C.3    1113      M_A    0.0000
   7794 O         110.3824  159.7974   55.2966 O.3    1113      M_A    0.0000
   7795 H         111.3507  161.8917   54.2777 H      1113      M_A    0.0000
   7796 H         113.0123  161.7713   54.8742 H      1113      M_A    0.0000
   7797 H         111.7775  160.7025   56.5411 H      1113      M_A    0.0000
   7798 H         112.3823  159.3178   55.5894 H      1113      M_A    0.0000
   7799 C         110.2159  159.4982   53.9272 C.3    1114      M_A    0.0000
   7800 C         108.9250  158.7402   53.6437 C.3    1114      M_A    0.0000
   7801 O         109.1720  157.3431   53.7952 O.3    1114      M_A    0.0000
   7802 H         111.0784  158.9157   53.5837 H      1114      M_A    0.0000
   7803 H         110.2075  160.4410   53.3686 H      1114      M_A    0.0000
   7804 H         108.6229  158.9577   52.6096 H      1114      M_A    0.0000
   7805 H         108.1192  159.0553   54.3200 H      1114      M_A    0.0000
   7806 C         108.0369  156.6895   54.3216 C.3    1115      M_A    0.0000
   7807 C         107.7710  157.0538   55.7770 C.3    1115      M_A    0.0000
   7808 O         106.8965  156.0774   56.3406 O.3    1115      M_A    0.0000
   7809 H         108.1733  155.6066   54.2228 H      1115      M_A    0.0000
   7810 H         107.1675  156.9719   53.7173 H      1115      M_A    0.0000
   7811 H         107.2922  158.0429   55.7980 H      1115      M_A    0.0000
   7812 H         108.7039  157.1014   56.3545 H      1115      M_A    0.0000
   7813 C         106.7961  154.9504   55.4965 C.3    1116      M_A    0.0000
   7814 C         105.3911  154.3616   55.4666 C.3    1116      M_A    0.0000
   7815 O         105.4599  152.9931   55.8644 O.3    1116      M_A    0.0000
   7816 H         107.5153  154.1930   55.8286 H      1116      M_A    0.0000
   7817 H         107.0782  155.2551   54.4824 H      1116      M_A    0.0000
   7818 H         105.0137  154.4344   54.4370 H      1116      M_A    0.0000
   7819 H         104.7120  154.9128   56.1308 H      1116      M_A    0.0000
   7820 C         104.2050  152.5447   56.3299 C.3    1117      M_A    0.0000
   7821 C         103.5783  151.4991   55.4159 C.3    1117      M_A    0.0000
   7822 O         102.1786  151.4356   55.6855 O.3    1117      M_A    0.0000
   7823 H         103.5355  153.4064   56.4317 H      1117      M_A    0.0000
   7824 H         104.3437  152.1116   57.3270 H      1117      M_A    0.0000
   7825 H         104.0471  150.5298   55.6363 H      1117      M_A    0.0000
   7826 H         103.7471  151.7398   54.3578 H      1117      M_A    0.0000
   7827 C         101.9220  151.6756   57.0527 C.3    1118      M_A    0.0000
   7828 C         100.9372  150.6781   57.6499 C.3    1118      M_A    0.0000
   7829 O          99.6119  151.1670   57.4486 O.3    1118      M_A    0.0000
   7830 H         101.5413  152.6967   57.1685 H      1118      M_A    0.0000
   7831 H         102.8712  151.6107   57.5964 H      1118      M_A    0.0000
   7832 H         101.1471  150.5954   58.7256 H      1118      M_A    0.0000
   7833 H         101.0457  149.6857   57.1922 H      1118      M_A    0.0000
   7834 C          99.1166  150.7633   56.1899 C.3    1119      M_A    0.0000
   7835 C          97.8898  149.8666   56.3010 C.3    1119      M_A    0.0000
   7836 O          98.1705  148.6253   55.6558 O.3    1119      M_A    0.0000
   7837 H          99.9137  150.2459   55.6440 H      1119      M_A    0.0000
   7838 H          98.8528  151.6619   55.6208 H      1119      M_A    0.0000
   7839 H          97.0533  150.3706   55.7968 H      1119      M_A    0.0000
   7840 H          97.6155  149.6919   57.3499 H      1119      M_A    0.0000
   7841 C          96.9812  147.8983   55.4327 C.3    1120      M_A    0.0000
   7842 C          96.9733  146.5513   56.1447 C.3    1120      M_A    0.0000
   7843 O          97.6619  145.6008   55.3334 O.3    1120      M_A    0.0000
   7844 H          96.8496  147.7555   54.3541 H      1120      M_A    0.0000
   7845 H          96.1390  148.4992   55.7941 H      1120      M_A    0.0000
   7846 H          95.9267  146.2429   56.2774 H      1120      M_A    0.0000
   7847 H          97.4491  146.6178   57.1323 H      1120      M_A    0.0000
   7848 C          98.7729  145.0681   56.0222 C.3    1121      M_A    0.0000
   7849 C          99.8934  144.6351   55.0849 C.3    1121      M_A    0.0000
   7850 O         100.7944  143.7960   55.8059 O.3    1121      M_A    0.0000
   7851 H          98.4401  144.2189   56.6297 H      1121      M_A    0.0000
   7852 H          99.1539  145.8363   56.7047 H      1121      M_A    0.0000
   7853 H         100.4164  145.5381   54.7400 H      1121      M_A    0.0000
   7854 H          99.4992  144.1003   54.2104 H      1121      M_A    0.0000
   7855 C         100.0862  142.8840   56.6179 C.3    1122      M_A    0.0000
   7856 C         100.9675  142.2317   57.6758 C.3    1122      M_A    0.0000
   7857 O         101.1646  140.8624   57.3263 O.3    1122      M_A    0.0000
   7858 H          99.6336  142.1172   55.9790 H      1122      M_A    0.0000
   7859 H          99.2732  143.4261   57.1140 H      1122      M_A    0.0000
   7860 H         100.4476  142.3011   58.6417 H      1122      M_A    0.0000
   7861 H         101.9364  142.7418   57.7596 H      1122      M_A    0.0000
   7862 C         102.2431  140.3120   58.0519 C.3    1123      M_A    0.0000
   7863 C         102.4976  138.8497   57.7081 C.3    1123      M_A    0.0000
   7864 O         102.2759  138.0599   58.8755 O.3    1123      M_A    0.0000
   7865 H         102.0404  140.4176   59.1238 H      1123      M_A    0.0000
   7866 H         103.1427  140.8951   57.8244 H      1123      M_A    0.0000
   7867 H         103.5432  138.7537   57.3833 H      1123      M_A    0.0000
   7868 H         101.8431  138.5102   56.8942 H      1123      M_A    0.0000
   7869 C         102.1647  136.6932   58.5401 C.3    1124      M_A    0.0000
   7870 C         100.9472  136.0301   59.1720 C.3    1124      M_A    0.0000
   7871 O         101.1943  134.6290   59.2810 O.3    1124      M_A    0.0000
   7872 H         103.0796  136.1759   58.8507 H      1124      M_A    0.0000
   7873 H         102.0907  136.6125   57.4497 H      1124      M_A    0.0000
   7874 H         100.0837  136.2087   58.5159 H      1124      M_A    0.0000
   7875 H         100.7306  136.4521   60.1624 H      1124      M_A    0.0000
   7876 C         100.2085  134.0087   60.0786 C.3    1125      M_A    0.0000
   7877 C         100.0271  132.5327   59.7468 C.3    1125      M_A    0.0000
   7878 O          98.6529  132.1903   59.9201 O.3    1125      M_A    0.0000
   7879 H          99.2604  134.5432   59.9507 H      1125      M_A    0.0000
   7880 H         100.5061  134.1055   61.1288 H      1125      M_A    0.0000
   7881 H         100.6493  131.9493   60.4400 H      1125      M_A    0.0000
   7882 H         100.3431  132.3120   58.7185 H      1125      M_A    0.0000
   7883 C          98.5163  130.8249   60.2512 C.3    1126      M_A    0.0000
   7884 C          97.4381  130.1264   59.4320 C.3    1126      M_A    0.0000
   7885 O          96.3524  129.7918   60.2952 O.3    1126      M_A    0.0000
   7886 H          98.2919  130.7397   61.3205 H      1126      M_A    0.0000
   7887 H          99.4780  130.3308   60.0726 H      1126      M_A    0.0000
   7888 H          97.8739  129.2119   59.0057 H      1126      M_A    0.0000
   7889 H          97.0835  130.7637   58.6110 H      1126      M_A    0.0000
   7890 C          95.5563  128.7750   59.7252 C.3    1127      M_A    0.0000
   7891 C          94.4224  129.3263   58.8698 C.3    1127      M_A    0.0000
   7892 O          93.1797  128.9093   59.4334 O.3    1127      M_A    0.0000
   7893 H          95.1523  128.1483   60.5284 H      1127      M_A    0.0000
   7894 H          96.2002  128.1437   59.1024 H      1127      M_A    0.0000
   7895 H          94.5308  128.9161   57.8559 H      1127      M_A    0.0000
   7896 H          94.4607  130.4223   58.8126 H      1127      M_A    0.0000
   7897 C          92.1674  128.8878   58.4498 C.3    1128      M_A    0.0000
   7898 C          91.2032  130.0612   58.5727 C.3    1128      M_A    0.0000
   7899 O          89.8713  129.5787   58.4023 O.3    1128      M_A    0.0000
   7900 H          91.6205  127.9410   58.5239 H      1128      M_A    0.0000
   7901 H          92.6459  128.9194   57.4644 H      1128      M_A    0.0000
   7902 H          91.4445  130.7841   57.7808 H      1128      M_A    0.0000
   7903 H          91.3012  130.5593   59.5466 H      1128      M_A    0.0000
   7904 C          89.0715  130.5408   57.7487 C.3    1129      M_A    0.0000
   7905 C          87.9073  131.0190   58.6075 C.3    1129      M_A    0.0000
   7906 O          86.6868  130.7150   57.9340 O.3    1129      M_A    0.0000
   7907 H          88.6979  130.1140   56.8110 H      1129      M_A    0.0000
   7908 H          89.7049  131.3983   57.4950 H      1129      M_A    0.0000
   7909 H          88.0038  132.1062   58.7365 H      1129      M_A    0.0000
   7910 H          87.9191  130.5441   59.5977 H      1129      M_A    0.0000
   7911 C          85.7063  131.6917   58.2121 C.3    1130      M_A    0.0000
   7912 C          84.5636  131.1519   59.0632 C.3    1130      M_A    0.0000
   7913 O          83.3325  131.6617   58.5528 O.3    1130      M_A    0.0000
   7914 H          85.3183  132.0848   57.2655 H      1130      M_A    0.0000
   7915 H          86.1883  132.5200   58.7437 H      1130      M_A    0.0000
   7916 H          84.7144  131.4993   60.0950 H      1130      M_A    0.0000
   7917 H          84.5463  130.0538   59.0599 H      1130      M_A    0.0000
   7918 C          82.4233  131.9147   59.6026 C.3    1131      M_A    0.0000
   7919 C          81.0382  131.3406   59.3318 C.3    1131      M_A    0.0000
   7920 O          80.0840  132.0615   60.1099 O.3    1131      M_A    0.0000
   7921 H          82.3582  132.9970   59.7627 H      1131      M_A    0.0000
   7922 H          82.8238  131.4663   60.5188 H      1131      M_A    0.0000
   7923 H          81.0440  130.2830   59.6308 H      1131      M_A    0.0000
   7924 H          80.7800  131.4042   58.2662 H      1131      M_A    0.0000
   7925 C          79.7551  133.2855   59.4884 C.3    1132      M_A    0.0000
   7926 C          79.4832  134.3998   60.4913 C.3    1132      M_A    0.0000
   7927 O          79.9439  135.6330   59.9412 O.3    1132      M_A    0.0000
   7928 H          78.8797  133.1338   58.8467 H      1132      M_A    0.0000
   7929 H          80.5922  133.5794   58.8451 H      1132      M_A    0.0000
   7930 H          80.0363  134.1703   61.4129 H      1132      M_A    0.0000
   7931 H          78.4137  134.4707   60.7305 H      1132      M_A    0.0000
   7932 C          80.0286  136.6254   60.9416 C.3    1133      M_A    0.0000
   7933 C          78.7746  136.6995   61.8038 C.3    1133      M_A    0.0000
   7934 O          77.8316  137.5603   61.1669 O.3    1133      M_A    0.0000
   7935 H          80.2166  137.5943   60.4654 H      1133      M_A    0.0000
   7936 H          80.8891  136.3960   61.5803 H      1133      M_A    0.0000
   7937 H          79.0583  137.1124   62.7820 H      1133      M_A    0.0000
   7938 H          78.3338  135.7051   61.9553 H      1133      M_A    0.0000
   7939 C          76.5359  137.0021   61.2118 C.3    1134      M_A    0.0000
   7940 C          75.6919  137.3769   60.0000 C.3    1134      M_A    0.0000
   7941 O          74.3703  137.6855   60.4406 O.3    1134      M_A    0.0000
   7942 H          76.0400  137.3296   62.1326 H      1134      M_A    0.0000
   7943 H          76.6337  135.9115   61.2564 H      1134      M_A    0.0000
   7944 H          75.6688  136.5129   59.3211 H      1134      M_A    0.0000
   7945 H          76.1198  138.2348   59.4642 H      1134      M_A    0.0000
   7946 C          73.5250  136.5628   60.3083 C.3    1135      M_A    0.0000
   7947 C          72.0973  136.9426   59.9354 C.3    1135      M_A    0.0000
   7948 O          71.2711  136.8065   61.0907 O.3    1135      M_A    0.0000
   7949 H          73.5321  136.0002   61.2488 H      1135      M_A    0.0000
   7950 H          73.9377  135.9126   59.5286 H      1135      M_A    0.0000
   7951 H          71.7571  136.2554   59.1480 H      1135      M_A    0.0000
   7952 H          72.0436  137.9708   59.5534 H      1135      M_A    0.0000
   7953 C          71.0885  135.4452   61.4166 C.3    1136      M_A    0.0000
   7954 C          69.6190  135.0630   61.5429 C.3    1136      M_A    0.0000
   7955 O          69.1939  135.3159   62.8812 O.3    1136      M_A    0.0000
   7956 H          71.6158  135.2306   62.3530 H      1136      M_A    0.0000
   7957 H          71.5496  134.8391   60.6286 H      1136      M_A    0.0000
   7958 H          69.5255  133.9917   61.3158 H      1136      M_A    0.0000
   7959 H          68.9963  135.6287   60.8371 H      1136      M_A    0.0000
   7960 C          68.3714  136.4618   62.9358 C.3    1137      M_A    0.0000
   7961 C          67.0430  136.1993   63.6343 C.3    1137      M_A    0.0000
   7962 O          65.9822  136.5297   62.7391 O.3    1137      M_A    0.0000
   7963 H          68.1963  136.8220   61.9157 H      1137      M_A    0.0000
   7964 H          68.9117  137.2464   63.4775 H      1137      M_A    0.0000
   7965 H          66.9949  136.8403   64.5258 H      1137      M_A    0.0000
   7966 H          66.9568  135.1507   63.9491 H      1137      M_A    0.0000
   7967 C          64.7573  135.9999   63.1992 C.3    1138      M_A    0.0000
   7968 C          64.7014  134.4803   63.1043 C.3    1138      M_A    0.0000
   7969 O          63.3850  134.0486   63.4459 O.3    1138      M_A    0.0000
   7970 H          63.9390  136.4442   62.6212 H      1138      M_A    0.0000
   7971 H          64.6259  136.2983   64.2454 H      1138      M_A    0.0000
   7972 H          65.4284  134.0679   63.8180 H      1138      M_A    0.0000
   7973 H          64.9615  134.1325   62.0956 H      1138      M_A    0.0000
   7974 C          62.6799  135.0747   64.1112 C.3    1139      M_A    0.0000
   7975 C          61.5555  134.5410   64.9900 C.3    1139      M_A    0.0000
   7976 O          60.3084  134.8113   64.3517 O.3    1139      M_A    0.0000
   7977 H          62.2781  135.7703   63.3656 H      1139      M_A    0.0000
   7978 H          63.3895  135.6295   64.7354 H      1139      M_A    0.0000
   7979 H          61.6028  135.0620   65.9566 H      1139      M_A    0.0000
   7980 H          61.6624  133.4622   65.1653 H      1139      M_A    0.0000
   7981 C          59.4020  133.7486   64.5562 C.3    1140      M_A    0.0000
   7982 C          57.9567  134.1486   64.2869 C.3    1140      M_A    0.0000
   7983 O          57.1515  133.7209   65.3844 O.3    1140      M_A    0.0000
   7984 H          59.5074  133.3853   65.5848 H      1140      M_A    0.0000
   7985 H          59.6777  132.9285   63.8837 H      1140      M_A    0.0000
   7986 H          57.6311  133.6468   63.3649 H      1140      M_A    0.0000
   7987 H          57.8607  135.2340   64.1503 H      1140      M_A    0.0000
   7988 C          55.8265  134.1867   65.2431 C.3    1141      M_A    0.0000
   7989 C          55.7211  135.7025   65.3557 C.3    1141      M_A    0.0000
   7990 O          54.3422  136.0683   65.3330 O.3    1141      M_A    0.0000
   7991 H          55.1988  133.7076   66.0031 H      1141      M_A    0.0000
   7992 H          55.4560  133.8742   64.2603 H      1141      M_A    0.0000
   7993 H          56.2406  136.1445   64.4939 H      1141      M_A    0.0000
   7994 H          56.1925  136.0691   66.2774 H      1141      M_A    0.0000
   7995 C          53.5312  134.9427   65.0721 C.3    1142      M_A    0.0000
   7996 C          52.2734  135.2936   64.2871 C.3    1142      M_A    0.0000
   7997 O          51.1851  135.4234   65.2006 O.3    1142      M_A    0.0000
   7998 H          53.2622  134.4707   66.0240 H      1142      M_A    0.0000
   7999 H          54.1218  134.2201   64.4977 H      1142      M_A    0.0000
   8000 H          52.0743  134.4757   63.5803 H      1142      M_A    0.0000
   8001 H          52.4023  136.2255   63.7205 H      1142      M_A    0.0000
   8002 C          49.9734  135.6324   64.5073 C.3    1143      M_A    0.0000
   8003 C          48.8704  136.1812   65.4037 C.3    1143      M_A    0.0000
   8004 O          47.7473  135.3038   65.3366 O.3    1143      M_A    0.0000
   8005 H          49.6557  134.6863   64.0547 H      1143      M_A    0.0000
   8006 H          50.1613  136.3434   63.6949 H      1143      M_A    0.0000
   8007 H          48.5917  137.1764   65.0297 H      1143      M_A    0.0000
   8008 H          49.2107  136.2780   66.4434 H      1143      M_A    0.0000
   8009 C          47.4234  134.8083   66.6181 C.3    1144      M_A    0.0000
   8010 C          46.5146  133.5866   66.5637 C.3    1144      M_A    0.0000
   8011 O          46.6258  132.8783   67.7973 O.3    1144      M_A    0.0000
   8012 H          46.9469  135.6072   67.1976 H      1144      M_A    0.0000
   8013 H          48.3556  134.5386   67.1273 H      1144      M_A    0.0000
   8014 H          46.8507  132.9494   65.7337 H      1144      M_A    0.0000
   8015 H          45.4692  133.8731   66.3872 H      1144      M_A    0.0000
   8016 C          45.9038  131.6664   67.7441 C.3    1145      M_A    0.0000
   8017 C          44.5196  131.7789   68.3708 C.3    1145      M_A    0.0000
   8018 O          44.0299  130.4655   68.6372 O.3    1145      M_A    0.0000
   8019 H          46.4838  130.8853   68.2486 H      1145      M_A    0.0000
   8020 H          45.7982  131.3759   66.6928 H      1145      M_A    0.0000
   8021 H          43.8609  132.2861   67.6519 H      1145      M_A    0.0000
   8022 H          44.5469  132.3657   69.2988 H      1145      M_A    0.0000
   8023 C          45.0925  129.5897   68.9477 C.3    1146      M_A    0.0000
   8024 C          45.3041  128.5212   67.8824 C.3    1146      M_A    0.0000
   8025 O          44.2626  127.5522   67.9932 O.3    1146      M_A    0.0000
   8026 H          44.8940  129.1206   69.9181 H      1146      M_A    0.0000
   8027 H          46.0085  130.1832   69.0462 H      1146      M_A    0.0000
   8028 H          46.2786  128.0470   68.0651 H      1146      M_A    0.0000
   8029 H          45.3073  128.9564   66.8741 H      1146      M_A    0.0000
   8030 C          44.4886  126.7000   69.0957 C.3    1147      M_A    0.0000
   8031 C          45.9120  126.1584   69.1380 C.3    1147      M_A    0.0000
   8032 O          46.0259  125.0966   68.1918 O.3    1147      M_A    0.0000
   8033 H          43.7712  125.8724   69.0575 H      1147      M_A    0.0000
   8034 H          44.2939  127.2671   70.0130 H      1147      M_A    0.0000
   8035 H          46.1016  125.7791   70.1520 H      1147      M_A    0.0000
   8036 H          46.6459  126.9437   68.9125 H      1147      M_A    0.0000
   8037 C          44.7497  124.6502   67.7861 C.3    1148      M_A    0.0000
   8038 C          43.7139  124.7405   68.8997 C.3    1148      M_A    0.0000
   8039 O          42.4356  124.4013   68.3643 O.3    1148      M_A    0.0000
   8040 H          44.8317  123.6168   67.4303 H      1148      M_A    0.0000
   8041 H          44.4226  125.2677   66.9420 H      1148      M_A    0.0000
   8042 H          43.7026  125.7750   69.2707 H      1148      M_A    0.0000
   8043 H          43.9627  124.0699   69.7331 H      1148      M_A    0.0000
   8044 C          41.4104  125.0987   69.0390 C.3    1149      M_A    0.0000
   8045 C          41.3446  124.7569   70.5223 C.3    1149      M_A    0.0000
   8046 O          40.5276  123.5991   70.6892 O.3    1149      M_A    0.0000
   8047 H          40.4519  124.8742   68.5574 H      1149      M_A    0.0000
   8048 H          41.5954  126.1731   68.9271 H      1149      M_A    0.0000
   8049 H          40.8964  125.6113   71.0488 H      1149      M_A    0.0000
   8050 H          42.3455  124.5738   70.9356 H      1149      M_A    0.0000
   8051 C          39.6017  123.4843   69.6298 C.3    1150      M_A    0.0000
   8052 C          38.9919  124.8234   69.2344 C.3    1150      M_A    0.0000
   8053 O          37.5841  124.7697   69.4606 O.3    1150      M_A    0.0000
   8054 H          38.8127  122.7823   69.9226 H      1150      M_A    0.0000
   8055 H          40.1218  123.0583   68.7644 H      1150      M_A    0.0000
   8056 H          39.1942  124.9872   68.1666 H      1150      M_A    0.0000
   8057 H          39.4338  125.6493   69.8077 H      1150      M_A    0.0000
   8058 C          37.3065  124.4357   70.8037 C.3    1151      M_A    0.0000
   8059 C          35.8304  124.1450   71.0442 C.3    1151      M_A    0.0000
   8060 O          35.7218  123.0481   71.9503 O.3    1151      M_A    0.0000
   8061 H          37.6393  125.2563   71.4495 H      1151      M_A    0.0000
   8062 H          37.8934  123.5478   71.0648 H      1151      M_A    0.0000
   8063 H          35.3741  123.8813   70.0797 H      1151      M_A    0.0000
   8064 H          35.3109  125.0225   71.4518 H      1151      M_A    0.0000
   8065 C          36.1132  121.8441   71.3261 C.3    1152      M_A    0.0000
   8066 C          37.2152  121.1182   72.0877 C.3    1152      M_A    0.0000
   8067 O          38.3271  120.9289   71.2139 O.3    1152      M_A    0.0000
   8068 H          36.4433  122.0649   70.3046 H      1152      M_A    0.0000
   8069 H          35.2354  121.1916   71.2583 H      1152      M_A    0.0000
   8070 H          36.8212  120.1440   72.4098 H      1152      M_A    0.0000
   8071 H          37.5268  121.6836   72.9762 H      1152      M_A    0.0000
   8072 C          38.0316  121.4068   69.9189 C.3    1153      M_A    0.0000
   8073 C          36.5356  121.5677   69.6789 C.3    1153      M_A    0.0000
   8074 O          36.1942  120.9086   68.4603 O.3    1153      M_A    0.0000
   8075 H          38.4601  120.7195   69.1806 H      1153      M_A    0.0000
   8076 H          38.5211  122.3790   69.7920 H      1153      M_A    0.0000
   8077 H          36.3177  122.6419   69.5981 H      1153      M_A    0.0000
   8078 H          35.9500  121.1507   70.5091 H      1153      M_A    0.0000
   8079 C          34.7928  120.8157   68.3185 C.3    1154      M_A    0.0000
   8080 C          34.2719  121.5844   67.1105 C.3    1154      M_A    0.0000
   8081 O          33.4950  122.6889   67.5713 O.3    1154      M_A    0.0000
   8082 H          34.3180  121.1858   69.2344 H      1154      M_A    0.0000
   8083 H          34.5283  119.7577   68.2108 H      1154      M_A    0.0000
   8084 H          33.6428  120.9038   66.5197 H      1154      M_A    0.0000
   8085 H          35.0955  121.9415   66.4779 H      1154      M_A    0.0000
   8086 C          33.4537  122.7165   68.9820 C.3    1155      M_A    0.0000
   8087 C          32.3245  123.5863   69.5202 C.3    1155      M_A    0.0000
   8088 O          31.9582  123.1112   70.8148 O.3    1155      M_A    0.0000
   8089 H          34.4184  123.0754   69.3584 H      1155      M_A    0.0000
   8090 H          33.3174  121.6902   69.3413 H      1155      M_A    0.0000
   8091 H          31.4709  123.4990   68.8333 H      1155      M_A    0.0000
   8092 H          32.6244  124.6412   69.5775 H      1155      M_A    0.0000
   8093 C          32.7715  122.0221   71.1956 C.3    1156      M_A    0.0000
   8094 C          33.5122  121.4014   70.0177 C.3    1156      M_A    0.0000
   8095 O          32.9970  120.0899   69.7930 O.3    1156      M_A    0.0000
   8096 H          32.1471  121.2680   71.6882 H      1156      M_A    0.0000
   8097 H          33.5024  122.3799   71.9296 H      1156      M_A    0.0000
   8098 H          34.5787  121.3460   70.2775 H      1156      M_A    0.0000
   8099 H          33.4016  122.0096   69.1100 H      1156      M_A    0.0000
   8100 C          33.8750  119.3409   68.9801 C.3    1157      M_A    0.0000
   8101 C          34.2671  118.0098   69.6092 C.3    1157      M_A    0.0000
   8102 O          35.6814  117.9914   69.7972 O.3    1157      M_A    0.0000
   8103 H          34.7698  119.9405   68.7779 H      1157      M_A    0.0000
   8104 H          33.3779  119.1515   68.0221 H      1157      M_A    0.0000
   8105 H          33.9699  117.2071   68.9197 H      1157      M_A    0.0000
   8106 H          33.7578  117.8558   70.5699 H      1157      M_A    0.0000
   8107 C          36.3258  118.7748   68.8155 C.3    1158      M_A    0.0000
   8108 C          37.6932  118.2250   68.4291 C.3    1158      M_A    0.0000
   8109 O          38.6849  119.2005   68.7465 O.3    1158      M_A    0.0000
   8110 H          36.4235  119.8009   69.1880 H      1158      M_A    0.0000
   8111 H          35.6869  118.8033   67.9256 H      1158      M_A    0.0000
   8112 H          37.6891  118.0327   67.3470 H      1158      M_A    0.0000
   8113 H          37.9091  117.2845   68.9534 H      1158      M_A    0.0000
   8114 C          39.8620  118.9771   68.0000 C.3    1159      M_A    0.0000
   8115 C          40.9086  120.0636   68.2135 C.3    1159      M_A    0.0000
   8116 O          41.4844  120.3986   66.9517 O.3    1159      M_A    0.0000
   8117 H          39.6010  118.9085   66.9378 H      1159      M_A    0.0000
   8118 H          40.2819  118.0111   68.3025 H      1159      M_A    0.0000
   8119 H          41.6820  119.6637   68.8843 H      1159      M_A    0.0000
   8120 H          40.4689  120.9575   68.6757 H      1159      M_A    0.0000
   8121 C          40.5019  120.9037   66.0729 C.3    1160      M_A    0.0000
   8122 C          41.0377  121.9988   65.1590 C.3    1160      M_A    0.0000
   8123 O          40.3379  123.2105   65.4379 O.3    1160      M_A    0.0000
   8124 H          39.6596  121.2832   66.6625 H      1160      M_A    0.0000
   8125 H          40.1318  120.0746   65.4592 H      1160      M_A    0.0000
   8126 H          40.8574  121.6924   64.1190 H      1160      M_A    0.0000
   8127 H          42.1167  122.1462   65.3010 H      1160      M_A    0.0000
   8128 C          39.0218  123.1553   64.9305 C.3    1161      M_A    0.0000
   8129 C          37.9938  123.7266   65.8990 C.3    1161      M_A    0.0000
   8130 O          37.0938  124.5610   65.1714 O.3    1161      M_A    0.0000
   8131 H          38.7770  122.1141   64.6915 H      1161      M_A    0.0000
   8132 H          38.9901  123.7274   63.9963 H      1161      M_A    0.0000
   8133 H          38.5298  124.3206   66.6526 H      1161      M_A    0.0000
   8134 H          37.4380  122.9286   66.4093 H      1161      M_A    0.0000
   8135 C          35.9908  124.9249   65.9737 C.3    1162      M_A    0.0000
   8136 C          35.9112  126.4268   66.2174 C.3    1162      M_A    0.0000
   8137 O          34.6081  126.7427   66.7052 O.3    1162      M_A    0.0000
   8138 H          36.0549  124.3908   66.9285 H      1162      M_A    0.0000
   8139 H          35.0758  124.5952   65.4688 H      1162      M_A    0.0000
   8140 H          36.0870  126.9366   65.2597 H      1162      M_A    0.0000
   8141 H          36.6724  126.7563   66.9371 H      1162      M_A    0.0000
   8142 C          34.2429  128.0563   66.3394 C.3    1163      M_A    0.0000
   8143 C          35.4457  128.9774   66.1777 C.3    1163      M_A    0.0000
   8144 O          35.0394  130.1378   65.4535 O.3    1163      M_A    0.0000
   8145 H          33.5591  128.4583   67.0957 H      1163      M_A    0.0000
   8146 H          33.6980  128.0090   65.3897 H      1163      M_A    0.0000
   8147 H          36.2168  128.4342   65.6135 H      1163      M_A    0.0000
   8148 H          35.8609  129.2682   67.1519 H      1163      M_A    0.0000
   8149 C          36.1627  130.8536   64.9863 C.3    1164      M_A    0.0000
   8150 C          36.2947  132.2273   65.6320 C.3    1164      M_A    0.0000
   8151 O          37.1915  133.0158   64.8510 O.3    1164      M_A    0.0000
   8152 H          36.0918  130.9541   63.8973 H      1164      M_A    0.0000
   8153 H          37.0606  130.2659   65.2084 H      1164      M_A    0.0000
   8154 H          36.7003  132.0898   66.6442 H      1164      M_A    0.0000
   8155 H          35.3208  132.7291   65.7076 H      1164      M_A    0.0000
   8156 C          38.5029  132.9397   65.3678 C.3    1165      M_A    0.0000
   8157 C          39.3215  131.8231   64.7318 C.3    1165      M_A    0.0000
   8158 O          39.3158  130.6961   65.6069 O.3    1165      M_A    0.0000
   8159 H          38.4490  132.7967   66.4530 H      1165      M_A    0.0000
   8160 H          39.0006  133.8984   65.1829 H      1165      M_A    0.0000
   8161 H          40.3493  132.1888   64.5979 H      1165      M_A    0.0000
   8162 H          38.9176  131.5397   63.7507 H      1165      M_A    0.0000
   8163 C          39.4443  129.4955   64.8757 C.3    1166      M_A    0.0000
   8164 C          39.4077  128.2589   65.7649 C.3    1166      M_A    0.0000
   8165 O          40.7270  127.9992   66.2422 O.3    1166      M_A    0.0000
   8166 H          40.3814  129.5242   64.3081 H      1166      M_A    0.0000
   8167 H          38.6204  129.4429   64.1551 H      1166      M_A    0.0000
   8168 H          39.0554  127.4134   65.1573 H      1166      M_A    0.0000
   8169 H          38.7212  128.3948   66.6113 H      1166      M_A    0.0000
   8170 C          40.8386  128.3346   67.6089 C.3    1167      M_A    0.0000
   8171 C          42.2757  128.2800   68.1121 C.3    1167      M_A    0.0000
   8172 O          42.2863  128.6023   69.5020 O.3    1167      M_A    0.0000
   8173 H          40.2081  127.6553   68.1937 H      1167      M_A    0.0000
   8174 H          40.4497  129.3500   67.7457 H      1167      M_A    0.0000
   8175 H          42.8611  129.0216   67.5506 H      1167      M_A    0.0000
   8176 H          42.7180  127.2876   67.9526 H      1167      M_A    0.0000
   8177 C          43.6055  128.8223   69.9535 C.3    1168      M_A    0.0000
   8178 C          43.6635  129.2442   71.4164 C.3    1168      M_A    0.0000
   8179 O          44.2609  130.5375   71.4962 O.3    1168      M_A    0.0000
   8180 H          44.0742  129.5856   69.3220 H      1168      M_A    0.0000
   8181 H          44.1711  127.8922   69.8266 H      1168      M_A    0.0000
   8182 H          44.2797  128.5124   71.9574 H      1168      M_A    0.0000
   8183 H          42.6623  129.2638   71.8672 H      1168      M_A    0.0000
   8184 C          45.5001  130.5578   70.8205 C.3    1169      M_A    0.0000
   8185 C          46.6627  130.1393   71.7120 C.3    1169      M_A    0.0000
   8186 O          47.5637  131.2388   71.8351 O.3    1169      M_A    0.0000
   8187 H          45.6721  131.5651   70.4246 H      1169      M_A    0.0000
   8188 H          45.4375  129.8716   69.9684 H      1169      M_A    0.0000
   8189 H          47.1703  129.2903   71.2329 H      1169      M_A    0.0000
   8190 H          46.3131  129.8264   72.7049 H      1169      M_A    0.0000
   8191 C          48.7489  130.9971   71.1074 C.3    1170      M_A    0.0000
   8192 C          49.5305  132.2722   70.8164 C.3    1170      M_A    0.0000
   8193 O          50.1742  132.1356   69.5504 O.3    1170      M_A    0.0000
   8194 H          48.4928  130.4897   70.1703 H      1170      M_A    0.0000
   8195 H          49.3782  130.3172   71.6927 H      1170      M_A    0.0000
   8196 H          50.2825  132.3983   71.6079 H      1170      M_A    0.0000
   8197 H          48.8732  133.1521   70.8113 H      1170      M_A    0.0000
   8198 C          51.3474  131.3595   69.6679 C.3    1171      M_A    0.0000
   8199 C          52.1241  131.2663   68.3605 C.3    1171      M_A    0.0000
   8200 O          53.0797  130.2124   68.4700 O.3    1171      M_A    0.0000
   8201 H          51.0762  130.3568   70.0177 H      1171      M_A    0.0000
   8202 H          51.9861  131.8168   70.4320 H      1171      M_A    0.0000
   8203 H          52.6389  132.2243   68.2016 H      1171      M_A    0.0000
   8204 H          51.4549  131.0804   67.5098 H      1171      M_A    0.0000
   8205 C          53.6509  129.9234   67.2119 C.3    1172      M_A    0.0000
   8206 C          54.8756  129.0230   67.3152 C.3    1172      M_A    0.0000
   8207 O          56.0470  129.8361   67.2636 O.3    1172      M_A    0.0000
   8208 H          53.9158  130.8651   66.7177 H      1172      M_A    0.0000
   8209 H          52.8922  129.4267   66.5967 H      1172      M_A    0.0000
   8210 H          54.8617  128.3307   66.4616 H      1172      M_A    0.0000
   8211 H          54.8647  128.4375   68.2442 H      1172      M_A    0.0000
   8212 C          56.2416  130.5097   68.4887 C.3    1173      M_A    0.0000
   8213 C          57.3882  131.5116   68.4331 C.3    1173      M_A    0.0000
   8214 O          58.5823  130.8653   68.8716 O.3    1173      M_A    0.0000
   8215 H          56.4257  129.7693   69.2755 H      1173      M_A    0.0000
   8216 H          55.3156  131.0390   68.7400 H      1173      M_A    0.0000
   8217 H          57.1442  132.3455   69.1062 H      1173      M_A    0.0000
   8218 H          57.5254  131.9067   67.4177 H      1173      M_A    0.0000
   8219 C          59.7129  131.4181   68.2324 C.3    1174      M_A    0.0000
   8220 C          60.6761  130.3552   67.7185 C.3    1174      M_A    0.0000
   8221 O          62.0105  130.7671   68.0108 O.3    1174      M_A    0.0000
   8222 H          60.2267  132.0849   68.9341 H      1174      M_A    0.0000
   8223 H          59.3670  132.0257   67.3886 H      1174      M_A    0.0000
   8224 H          60.5396  130.2696   66.6313 H      1174      M_A    0.0000
   8225 H          60.4751  129.3777   68.1771 H      1174      M_A    0.0000
   8226 C          62.2981  130.5923   69.3817 C.3    1175      M_A    0.0000
   8227 C          63.7759  130.3297   69.6435 C.3    1175      M_A    0.0000
   8228 O          64.1242  129.0682   69.0751 O.3    1175      M_A    0.0000
   8229 H          61.6937  129.7639   69.7684 H      1175      M_A    0.0000
   8230 H          61.9962  131.5013   69.9142 H      1175      M_A    0.0000
   8231 H          63.9297  130.3061   70.7315 H      1175      M_A    0.0000
   8232 H          64.4050  131.1217   69.2157 H      1175      M_A    0.0000
   8233 C          64.2266  129.1645   67.6705 C.3    1176      M_A    0.0000
   8234 C          64.9140  127.9562   67.0469 C.3    1176      M_A    0.0000
   8235 O          66.2880  128.2733   66.8290 O.3    1176      M_A    0.0000
   8236 H          64.7713  130.0810   67.4163 H      1176      M_A    0.0000
   8237 H          63.2152  129.2534   67.2581 H      1176      M_A    0.0000
   8238 H          64.4218  127.7423   66.0878 H      1176      M_A    0.0000
   8239 H          64.8298  127.0711   67.6915 H      1176      M_A    0.0000
   8240 C          67.0814  127.1063   66.8639 C.3    1177      M_A    0.0000
   8241 C          67.1995  126.5173   68.2641 C.3    1177      M_A    0.0000
   8242 O          67.5664  125.1429   68.1528 O.3    1177      M_A    0.0000
   8243 H          68.0762  127.3415   66.4686 H      1177      M_A    0.0000
   8244 H          66.6269  126.3625   66.1998 H      1177      M_A    0.0000
   8245 H          66.2196  126.6054   68.7539 H      1177      M_A    0.0000
   8246 H          67.9435  127.0579   68.8642 H      1177      M_A    0.0000
   8247 C          68.9141  125.0166   67.7524 C.3    1178      M_A    0.0000
   8248 C          69.1260  123.8905   66.7482 C.3    1178      M_A    0.0000
   8249 O          70.5005  123.5084   66.7725 O.3    1178      M_A    0.0000
   8250 H          69.5343  124.8513   68.6408 H      1178      M_A    0.0000
   8251 H          69.2275  125.9639   67.2994 H      1178      M_A    0.0000
   8252 H          68.8594  124.2690   65.7514 H      1178      M_A    0.0000
   8253 H          68.4906  123.0247   66.9780 H      1178      M_A    0.0000
   8254 C          71.3079  124.5116   66.1943 C.3    1179      M_A    0.0000
   8255 C          72.7174  124.0244   65.8823 C.3    1179      M_A    0.0000
   8256 O          73.5301  124.2022   67.0415 O.3    1179      M_A    0.0000
   8257 H          71.3476  125.3706   66.8736 H      1179      M_A    0.0000
   8258 H          70.8301  124.8435   65.2656 H      1179      M_A    0.0000
   8259 H          73.1103  124.6287   65.0526 H      1179      M_A    0.0000
   8260 H          72.7182  122.9685   65.5805 H      1179      M_A    0.0000
   8261 C          73.3325  123.1457   67.9567 C.3    1180      M_A    0.0000
   8262 C          74.6041  122.3480   68.2173 C.3    1180      M_A    0.0000
   8263 O          74.4306  121.0290   67.7018 O.3    1180      M_A    0.0000
   8264 H          72.5456  122.4863   67.5730 H      1180      M_A    0.0000
   8265 H          72.9776  123.5724   68.9016 H      1180      M_A    0.0000
   8266 H          74.7639  122.3081   69.3039 H      1180      M_A    0.0000
   8267 H          75.4772  122.8228   67.7498 H      1180      M_A    0.0000
   8268 C          75.6722  120.3652   67.5998 C.3    1181      M_A    0.0000
   8269 C          75.6209  119.1624   66.6661 C.3    1181      M_A    0.0000
   8270 O          76.3451  118.0880   67.2637 O.3    1181      M_A    0.0000
   8271 H          75.9907  120.0524   68.6007 H      1181      M_A    0.0000
   8272 H          76.4130  121.0795   67.2231 H      1181      M_A    0.0000
   8273 H          76.0920  119.4493   65.7155 H      1181      M_A    0.0000
   8274 H          74.5858  118.8538   66.4675 H      1181      M_A    0.0000
   8275 C          76.6181  117.0803   66.3136 C.3    1182      M_A    0.0000
   8276 C          77.6380  116.0638   66.8114 C.3    1182      M_A    0.0000
   8277 O          78.7867  116.1168   65.9666 O.3    1182      M_A    0.0000
   8278 H          76.9742  117.5505   65.3899 H      1182      M_A    0.0000
   8279 H          75.6800  116.5628   66.0833 H      1182      M_A    0.0000
   8280 H          77.1786  115.0667   66.7577 H      1182      M_A    0.0000
   8281 H          77.9268  116.2633   67.8520 H      1182      M_A    0.0000
   8282 C          79.6059  114.9846   66.1659 C.3    1183      M_A    0.0000
   8283 C          80.9865  115.3446   66.7004 C.3    1183      M_A    0.0000
   8284 O          81.8831  115.4782   65.5986 O.3    1183      M_A    0.0000
   8285 H          79.6981  114.4420   65.2182 H      1183      M_A    0.0000
   8286 H          79.1066  114.3217   66.8816 H      1183      M_A    0.0000
   8287 H          81.3196  114.5297   67.3584 H      1183      M_A    0.0000
   8288 H          80.9606  116.2773   67.2797 H      1183      M_A    0.0000
   8289 C          83.1795  115.8109   66.0473 C.3    1184      M_A    0.0000
   8290 C          83.5765  117.2382   65.6917 C.3    1184      M_A    0.0000
   8291 O          84.8357  117.2094   65.0212 O.3    1184      M_A    0.0000
   8292 H          83.8966  115.1020   65.6179 H      1184      M_A    0.0000
   8293 H          83.2064  115.6927   67.1365 H      1184      M_A    0.0000
   8294 H          83.6622  117.8104   66.6262 H      1184      M_A    0.0000
   8295 H          82.8213  117.7164   65.0536 H      1184      M_A    0.0000
   8296 C          85.0074  118.3666   64.2311 C.3    1185      M_A    0.0000
   8297 C          86.4621  118.8122   64.1496 C.3    1185      M_A    0.0000
   8298 O          86.5008  120.2366   64.0760 O.3    1185      M_A    0.0000
   8299 H          84.3887  119.1722   64.6425 H      1185      M_A    0.0000
   8300 H          84.6423  118.1495   63.2209 H      1185      M_A    0.0000
   8301 H          86.9005  118.3776   63.2402 H      1185      M_A    0.0000
   8302 H          87.0364  118.4645   65.0187 H      1185      M_A    0.0000
   8303 C          87.7756  120.6808   63.6635 C.3    1186      M_A    0.0000
   8304 C          88.3084  121.8195   64.5243 C.3    1186      M_A    0.0000
   8305 O          89.1273  122.6612   63.7140 O.3    1186      M_A    0.0000
   8306 H          87.7199  120.9950   62.6150 H      1186      M_A    0.0000
   8307 H          88.4690  119.8342   63.7207 H      1186      M_A    0.0000
   8308 H          88.9074  121.3815   65.3351 H      1186      M_A    0.0000
   8309 H          87.4902  122.4035   64.9665 H      1186      M_A    0.0000
   8310 C          89.3809  123.8878   64.3651 C.3    1187      M_A    0.0000
   8311 C          90.7148  124.5032   63.9608 C.3    1187      M_A    0.0000
   8312 O          91.6803  124.2051   64.9682 O.3    1187      M_A    0.0000
   8313 H          89.3529  123.7268   65.4487 H      1187      M_A    0.0000
   8314 H          88.5738  124.5842   64.1111 H      1187      M_A    0.0000
   8315 H          90.5779  125.5909   63.8826 H      1187      M_A    0.0000
   8316 H          91.0543  124.1199   62.9892 H      1187      M_A    0.0000
   8317 C          92.9878  124.4454   64.4935 C.3    1188      M_A    0.0000
   8318 C          93.4204  123.4439   63.4299 C.3    1188      M_A    0.0000
   8319 O          94.5425  122.7116   63.9204 O.3    1188      M_A    0.0000
   8320 H          93.6831  124.4201   65.3403 H      1188      M_A    0.0000
   8321 H          93.0182  125.4548   64.0681 H      1188      M_A    0.0000
   8322 H          93.7040  124.0058   62.5289 H      1188      M_A    0.0000
   8323 H          92.6045  122.7550   63.1735 H      1188      M_A    0.0000
   8324 C          95.7139  123.4975   63.8666 C.3    1189      M_A    0.0000
   8325 C          96.9525  122.6833   63.5141 C.3    1189      M_A    0.0000
   8326 O          97.4928  122.1299   64.7131 O.3    1189      M_A    0.0000
   8327 H          95.8522  123.9950   64.8333 H      1189      M_A    0.0000
   8328 H          95.5700  124.2763   63.1092 H      1189      M_A    0.0000
   8329 H          97.6839  123.3601   63.0505 H      1189      M_A    0.0000
   8330 H          96.7148  121.8808   62.8030 H      1189      M_A    0.0000
   8331 C          97.0719  120.7928   64.8798 C.3    1190      M_A    0.0000
   8332 C          98.0793  119.9516   65.6537 C.3    1190      M_A    0.0000
   8333 O          98.1864  118.6743   65.0267 O.3    1190      M_A    0.0000
   8334 H          96.8915  120.3518   63.8929 H      1190      M_A    0.0000
   8335 H          96.1191  120.7981   65.4212 H      1190      M_A    0.0000
   8336 H          97.7071  119.8350   66.6812 H      1190      M_A    0.0000
   8337 H          99.0637  120.4374   65.6883 H      1190      M_A    0.0000
   8338 C          99.3812  118.0281   65.4108 C.3    1191      M_A    0.0000
   8339 C          99.1311  116.7724   66.2367 C.3    1191      M_A    0.0000
   8340 O         100.1024  116.7101   67.2800 O.3    1191      M_A    0.0000
   8341 H         100.0007  118.7339   65.9757 H      1191      M_A    0.0000
   8342 H          99.9310  117.7557   64.5028 H      1191      M_A    0.0000
   8343 H          99.2367  115.9024   65.5735 H      1191      M_A    0.0000
   8344 H          98.1194  116.7693   66.6639 H      1191      M_A    0.0000
   8345 C         101.0796  117.7150   67.1132 C.3    1192      M_A    0.0000
   8346 C         102.4494  117.2950   67.6316 C.3    1192      M_A    0.0000
   8347 O         103.2373  118.4656   67.8431 O.3    1192      M_A    0.0000
   8348 H         100.7450  118.6241   67.6258 H      1192      M_A    0.0000
   8349 H         101.1564  117.9448   66.0445 H      1192      M_A    0.0000
   8350 H         102.9207  116.6582   66.8699 H      1192      M_A    0.0000
   8351 H         102.3658  116.7238   68.5659 H      1192      M_A    0.0000
   8352 C         104.4177  118.1518   68.5508 C.3    1193      M_A    0.0000
   8353 C         105.4214  119.2981   68.5576 C.3    1193      M_A    0.0000
   8354 O         106.3339  119.1137   67.4764 O.3    1193      M_A    0.0000
   8355 H         104.8700  117.2572   68.1078 H      1193      M_A    0.0000
   8356 H         104.1441  117.9094   69.5839 H      1193      M_A    0.0000
   8357 H         105.9624  119.2708   69.5139 H      1193      M_A    0.0000
   8358 H         104.9191  120.2703   68.4644 H      1193      M_A    0.0000
   8359 C         107.6125  119.6088   67.8121 C.3    1194      M_A    0.0000
   8360 C         108.5546  119.6632   66.6159 C.3    1194      M_A    0.0000
   8361 O         109.8761  119.9254   67.0857 O.3    1194      M_A    0.0000
   8362 H         108.0408  118.9801   68.6010 H      1194      M_A    0.0000
   8363 H         107.4931  120.6190   68.2198 H      1194      M_A    0.0000
   8364 H         108.2219  120.4782   65.9577 H      1194      M_A    0.0000
   8365 H         108.5365  118.7227   66.0491 H      1194      M_A    0.0000
   8366 C         110.7160  120.3176   66.0211 C.3    1195      M_A    0.0000
   8367 C         112.1191  119.7347   66.1337 C.3    1195      M_A    0.0000
   8368 O         112.4991  119.2079   64.8633 O.3    1195      M_A    0.0000
   8369 H         110.7636  121.4121   65.9912 H      1195      M_A    0.0000
   8370 H         110.2618  119.9787   65.0831 H      1195      M_A    0.0000
   8371 H         112.0939  118.9295   66.8813 H      1195      M_A    0.0000
   8372 H         112.8431  120.4942   66.4579 H      1195      M_A    0.0000
   8373 C         113.2043  117.9947   65.0165 C.3    1196      M_A    0.0000
   8374 C         114.3014  118.0814   66.0702 C.3    1196      M_A    0.0000
   8375 O         115.5393  117.6958   65.4747 O.3    1196      M_A    0.0000
   8376 H         113.6325  117.7085   64.0491 H      1196      M_A    0.0000
   8377 H         112.4894  117.2167   65.3072 H      1196      M_A    0.0000
   8378 H         114.0456  117.3897   66.8852 H      1196      M_A    0.0000
   8379 H         114.3818  119.0965   66.4816 H      1196      M_A    0.0000
   8380 C         116.4137  117.1584   66.4439 C.3    1197      M_A    0.0000
   8381 C         117.5218  118.1272   66.8377 C.3    1197      M_A    0.0000
   8382 O         118.5580  118.0593   65.8592 O.3    1197      M_A    0.0000
   8383 H         116.8457  116.2290   66.0558 H      1197      M_A    0.0000
   8384 H         115.8260  116.9059   67.3337 H      1197      M_A    0.0000
   8385 H         117.9109  117.8186   67.8182 H      1197      M_A    0.0000
   8386 H         117.1449  119.1558   66.9158 H      1197      M_A    0.0000
   8387 C         119.4479  119.1463   65.9980 C.3    1198      M_A    0.0000
   8388 C         118.8163  120.4767   65.6075 C.3    1198      M_A    0.0000
   8389 O         119.7793  121.2474   64.8903 O.3    1198      M_A    0.0000
   8390 H         120.3373  118.9572   65.3863 H      1198      M_A    0.0000
   8391 H         119.7684  119.1957   67.0448 H      1198      M_A    0.0000
   8392 H         118.5284  121.0003   66.5299 H      1198      M_A    0.0000
   8393 H         117.9190  120.3282   64.9918 H      1198      M_A    0.0000
   8394 C         121.0285  121.2223   65.5473 C.3    1199      M_A    0.0000
   8395 C         122.1916  121.5241   64.6105 C.3    1199      M_A    0.0000
   8396 O         122.3776  120.4101   63.7385 O.3    1199      M_A    0.0000
   8397 H         121.1648  120.2398   66.0133 H      1199      M_A    0.0000
   8398 H         121.0101  121.9706   66.3477 H      1199      M_A    0.0000
   8399 H         123.0914  121.6753   65.2232 H      1199      M_A    0.0000
   8400 H         122.0074  122.4342   64.0241 H      1199      M_A    0.0000
   8401 C         123.1612  119.4143   64.3608 C.3    1200      M_A    0.0000
   8402 C         124.6379  119.5174   64.0000 C.3    1200      M_A    0.0000
   8403 O         125.1902  118.2027   63.9527 O.3    1200      M_A    0.0000
   8404 H         122.7721  118.4292   64.0793 H      1200      M_A    0.0000
   8405 H         123.0497  119.5185   65.4460 H      1200      M_A    0.0000
   8406 H         125.1385  120.1067   64.7810 H      1200      M_A    0.0000
   8407 H         124.7796  120.0201   63.0339 H      1200      M_A    0.0000
   8408 C         126.4405  118.2096   63.2974 C.3    1201      M_A    0.0000
   8409 C         127.5893  117.8193   64.2190 C.3    1201      M_A    0.0000
   8410 O         128.4809  118.9274   64.3335 O.3    1201      M_A    0.0000
   8411 H         126.6158  119.2068   62.8778 H      1201      M_A    0.0000
   8412 H         126.3944  117.5008   62.4629 H      1201      M_A    0.0000
   8413 H         128.1109  116.9632   63.7685 H      1201      M_A    0.0000
   8414 H         127.2237  117.5264   65.2123 H      1201      M_A    0.0000
   8415 C         127.7649  120.1236   64.5546 C.3    1202      M_A    0.0000
   8416 C         128.5196  121.3576   64.0758 C.3    1202      M_A    0.0000
   8417 O         129.6903  120.9357   63.3778 O.3    1202      M_A    0.0000
   8418 H         127.5401  120.2103   65.6237 H      1202      M_A    0.0000
   8419 H         126.8114  120.0568   64.0185 H      1202      M_A    0.0000
   8420 H         128.8017  121.9478   64.9591 H      1202      M_A    0.0000
   8421 H         127.8948  121.9797   63.4210 H      1202      M_A    0.0000
   8422 C         130.5678  122.0222   63.1722 C.3    1203      M_A    0.0000
   8423 C         131.4364  121.8498   61.9324 C.3    1203      M_A    0.0000
   8424 O         132.7859  122.1650   62.2717 O.3    1203      M_A    0.0000
   8425 H         131.1982  122.1423   64.0606 H      1203      M_A    0.0000
   8426 H         129.9673  122.9326   63.0648 H      1203      M_A    0.0000
   8427 H         131.0714  122.5437   61.1622 H      1203      M_A    0.0000
   8428 H         131.3763  120.8255   61.5409 H      1203      M_A    0.0000
   8429 C         133.1366  123.4442   61.7887 C.3    1204      M_A    0.0000
   8430 C         133.3436  124.4584   62.9068 C.3    1204      M_A    0.0000
   8431 O         133.7901  125.6864   62.3337 O.3    1204      M_A    0.0000
   8432 H         132.3543  123.7919   61.1043 H      1204      M_A    0.0000
   8433 H         134.0647  123.3512   61.2134 H      1204      M_A    0.0000
   8434 H         134.1096  124.0620   63.5880 H      1204      M_A    0.0000
   8435 H         132.4179  124.6227   63.4744 H      1204      M_A    0.0000
   8436 C         134.8565  126.2286   63.0830 C.3    1205      M_A    0.0000
   8437 C         135.1398  127.6844   62.7340 C.3    1205      M_A    0.0000
   8438 O         136.2968  127.7383   61.9009 O.3    1205      M_A    0.0000
   8439 H         135.7525  125.6198   62.9171 H      1205      M_A    0.0000
   8440 H         134.5991  126.1589   64.1460 H      1205      M_A    0.0000
   8441 H         135.3262  128.2286   63.6705 H      1205      M_A    0.0000
   8442 H         134.2854  128.1467   62.2218 H      1205      M_A    0.0000
   8443 C         136.2757  128.8945   61.0913 C.3    1206      M_A    0.0000
   8444 C         136.6072  128.5980   59.6340 C.3    1206      M_A    0.0000
   8445 O         137.9460  128.1105   59.5593 O.3    1206      M_A    0.0000
   8446 H         136.9839  129.6255   61.4979 H      1206      M_A    0.0000
   8447 H         135.2738  129.3349   61.1481 H      1206      M_A    0.0000
   8448 H         136.5171  129.5353   59.0672 H      1206      M_A    0.0000
   8449 H         135.9139  127.8604   59.2081 H      1206      M_A    0.0000
   8450 C         138.2176  127.5914   58.2750 C.3    1207      M_A    0.0000
   8451 C         139.5594  126.8733   58.2028 C.3    1207      M_A    0.0000
   8452 O         139.3256  125.4658   58.2024 O.3    1207      M_A    0.0000
   8453 H         138.1887  128.4107   57.5477 H      1207      M_A    0.0000
   8454 H         137.4199  126.8867   58.0142 H      1207      M_A    0.0000
   8455 H         140.1447  127.1560   59.0891 H      1207      M_A    0.0000
   8456 H         140.1198  127.1619   57.3035 H      1207      M_A    0.0000
   8457 C         140.5089  124.7631   57.8881 C.3    1208      M_A    0.0000
   8458 C         140.9470  124.9663   56.4430 C.3    1208      M_A    0.0000
   8459 O         140.4254  123.8992   55.6524 O.3    1208      M_A    0.0000
   8460 H         140.3524  123.6970   58.0883 H      1208      M_A    0.0000
   8461 H         141.3038  125.1139   58.5559 H      1208      M_A    0.0000
   8462 H         142.0457  124.9513   56.4154 H      1208      M_A    0.0000
   8463 H         140.5977  125.9308   56.0508 H      1208      M_A    0.0000
   8464 C         139.0332  124.0464   55.4711 C.3    1209      M_A    0.0000
   8465 C         138.6266  124.0301   54.0028 C.3    1209      M_A    0.0000
   8466 O         137.2193  124.2480   53.9154 O.3    1209      M_A    0.0000
   8467 H         138.7111  124.9825   55.9413 H      1209      M_A    0.0000
   8468 H         138.5307  123.2228   55.9909 H      1209      M_A    0.0000
   8469 H         138.8797  123.0432   53.5907 H      1209      M_A    0.0000
   8470 H         139.1627  124.7991   53.4307 H      1209      M_A    0.0000
   8471 C         136.8420  125.3825   54.6660 C.3    1210      M_A    0.0000
   8472 C         137.4876  125.4158   56.0457 C.3    1210      M_A    0.0000
   8473 O         136.5925  124.8208   56.9841 O.3    1210      M_A    0.0000
   8474 H         135.7502  125.3988   54.7600 H      1210      M_A    0.0000
   8475 H         137.1415  126.2774   54.1089 H      1210      M_A    0.0000
   8476 H         137.6662  126.4670   56.3123 H      1210      M_A    0.0000
   8477 H         138.4477  124.8827   56.0512 H      1210      M_A    0.0000
   8478 C         136.1909  125.7616   57.9568 C.3    1211      M_A    0.0000
   8479 C         137.0522  125.7130   59.2126 C.3    1211      M_A    0.0000
   8480 O         136.7447  124.5202   59.9326 O.3    1211      M_A    0.0000
   8481 H         135.1406  125.5812   58.2127 H      1211      M_A    0.0000
   8482 H         136.2585  126.7621   57.5148 H      1211      M_A    0.0000
   8483 H         136.8110  126.5933   59.8248 H      1211      M_A    0.0000
   8484 H         138.1220  125.7380   58.9654 H      1211      M_A    0.0000
   8485 C         136.6388  123.4201   59.0544 C.3    1212      M_A    0.0000
   8486 C         137.5704  122.2750   59.4315 C.3    1212      M_A    0.0000
   8487 O         138.4279  121.9993   58.3249 O.3    1212      M_A    0.0000
   8488 H         136.8514  123.7588   58.0340 H      1212      M_A    0.0000
   8489 H         135.6035  123.0615   59.0770 H      1212      M_A    0.0000
   8490 H         136.9529  121.3940   59.6561 H      1212      M_A    0.0000
   8491 H         138.1688  122.5216   60.3188 H      1212      M_A    0.0000
   8492 C         137.9515  122.6294   57.1550 C.3    1213      M_A    0.0000
   8493 C         136.4340  122.7646   57.1364 C.3    1213      M_A    0.0000
   8494 O         135.8736  121.5600   56.6161 O.3    1213      M_A    0.0000
   8495 H         138.2900  122.0597   56.2821 H      1213      M_A    0.0000
   8496 H         138.4006  123.6272   57.0956 H      1213      M_A    0.0000
   8497 H         136.1759  123.6107   56.4841 H      1213      M_A    0.0000
   8498 H         136.0374  122.9606   58.1416 H      1213      M_A    0.0000
   8499 C         136.1306  120.4751   57.4817 C.3    1214      M_A    0.0000
   8500 C         137.6149  120.1494   57.5915 C.3    1214      M_A    0.0000
   8501 O         137.9335  119.1387   56.6360 O.3    1214      M_A    0.0000
   8502 H         135.5775  119.5984   57.1259 H      1214      M_A    0.0000
   8503 H         135.7457  120.7305   58.4755 H      1214      M_A    0.0000
   8504 H         137.8075  119.7786   58.6081 H      1214      M_A    0.0000
   8505 H         138.2339  121.0398   57.4179 H      1214      M_A    0.0000
   8506 C         136.8102  118.3237   56.3779 C.3    1215      M_A    0.0000
   8507 C         136.4784  118.2329   54.8936 C.3    1215      M_A    0.0000
   8508 O         135.8807  119.4615   54.4824 O.3    1215      M_A    0.0000
   8509 H         135.9511  118.7173   56.9330 H      1215      M_A    0.0000
   8510 H         137.0208  117.3184   56.7598 H      1215      M_A    0.0000
   8511 H         135.7689  117.4053   54.7537 H      1215      M_A    0.0000
   8512 H         137.3766  118.0323   54.2944 H      1215      M_A    0.0000
   8513 C         135.2539  119.3159   53.2260 C.3    1216      M_A    0.0000
   8514 C         135.5947  120.4475   52.2644 C.3    1216      M_A    0.0000
   8515 O         134.5435  121.4116   52.3014 O.3    1216      M_A    0.0000
   8516 H         134.1695  119.2611   53.3745 H      1216      M_A    0.0000
   8517 H         135.5784  118.3648   52.7889 H      1216      M_A    0.0000
   8518 H         135.6781  120.0221   51.2544 H      1216      M_A    0.0000
   8519 H         136.5497  120.9219   52.5270 H      1216      M_A    0.0000
   8520 C         134.6359  122.2935   51.2030 C.3    1217      M_A    0.0000
   8521 C         135.4538  123.5400   51.5172 C.3    1217      M_A    0.0000
   8522 O         134.7835  124.6762   50.9732 O.3    1217      M_A    0.0000
   8523 H         133.6247  122.5754   50.8882 H      1217      M_A    0.0000
   8524 H         135.1060  121.7572   50.3710 H      1217      M_A    0.0000
   8525 H         136.4409  123.4265   51.0475 H      1217      M_A    0.0000
   8526 H         135.5908  123.6665   52.5994 H      1217      M_A    0.0000
   8527 C         134.9080  125.7885   51.8334 C.3    1218      M_A    0.0000
   8528 C         135.7500  126.9063   51.2308 C.3    1218      M_A    0.0000
   8529 O         135.0294  128.1327   51.3420 O.3    1218      M_A    0.0000
   8530 H         135.3452  125.4565   52.7819 H      1218      M_A    0.0000
   8531 H         133.9036  126.1718   52.0460 H      1218      M_A    0.0000
   8532 H         135.9240  126.6681   50.1720 H      1218      M_A    0.0000
   8533 H         136.7209  126.9931   51.7367 H      1218      M_A    0.0000
   8534 C         135.3678  128.8041   52.5367 C.3    1219      M_A    0.0000
   8535 C         135.0538  130.2941   52.4830 C.3    1219      M_A    0.0000
   8536 O         136.2819  131.0204   52.4740 O.3    1219      M_A    0.0000
   8537 H         136.4336  128.6505   52.7406 H      1219      M_A    0.0000
   8538 H         134.8029  128.3487   53.3580 H      1219      M_A    0.0000
   8539 H         134.4723  130.5517   53.3793 H      1219      M_A    0.0000
   8540 H         134.4610  130.5463   51.5935 H      1219      M_A    0.0000
   8541 C         136.0996  132.3026   51.9124 C.3    1220      M_A    0.0000
   8542 C         137.3606  133.1557   51.9730 C.3    1220      M_A    0.0000
   8543 O         136.9818  134.5211   52.1397 O.3    1220      M_A    0.0000
   8544 H         135.2785  132.8058   52.4356 H      1220      M_A    0.0000
   8545 H         135.8009  132.1792   50.8653 H      1220      M_A    0.0000
   8546 H         137.9024  133.0297   51.0251 H      1220      M_A    0.0000
   8547 H         138.0156  132.8436   52.7975 H      1220      M_A    0.0000
   8548 C         138.1060  135.3173   52.4476 C.3    1221      M_A    0.0000
   8549 C         138.3946  136.3650   51.3796 C.3    1221      M_A    0.0000
   8550 O         138.4283  135.7229   50.1059 O.3    1221      M_A    0.0000
   8551 H         138.9768  134.6654   52.5813 H      1221      M_A    0.0000
   8552 H         137.9182  135.8215   53.4022 H      1221      M_A    0.0000
   8553 H         139.3735  136.8139   51.5994 H      1221      M_A    0.0000
   8554 H         137.6348  137.1579   51.3813 H      1221      M_A    0.0000
   8555 C         138.7193  134.3488   50.2470 C.3    1222      M_A    0.0000
   8556 C         139.6283  134.0593   51.4351 C.3    1222      M_A    0.0000
   8557 O         140.9254  134.5846   51.1575 O.3    1222      M_A    0.0000
   8558 H         139.1817  133.9871   49.3215 H      1222      M_A    0.0000
   8559 H         137.7744  133.8099   50.3795 H      1222      M_A    0.0000
   8560 H         139.6844  132.9691   51.5626 H      1222      M_A    0.0000
   8561 H         139.2326  134.5023   52.3588 H      1222      M_A    0.0000
   8562 C         141.7315  134.5626   52.3161 C.3    1223      M_A    0.0000
   8563 C         142.5376  135.8430   52.4958 C.3    1223      M_A    0.0000
   8564 O         143.9059  135.5676   52.1997 O.3    1223      M_A    0.0000
   8565 H         142.4032  133.6982   52.2648 H      1223      M_A    0.0000
   8566 H         141.0787  134.4256   53.1856 H      1223      M_A    0.0000
   8567 H         142.4376  136.1638   53.5423 H      1223      M_A    0.0000
   8568 H         142.1656  136.6449   51.8441 H      1223      M_A    0.0000
   8569 C         144.7374  136.6076   52.6683 C.3    1224      M_A    0.0000
   8570 C         144.3438  137.9706   52.1126 C.3    1224      M_A    0.0000
   8571 O         145.3913  138.8984   52.3918 O.3    1224      M_A    0.0000
   8572 H         145.7760  136.3782   52.4039 H      1224      M_A    0.0000
   8573 H         144.6705  136.6339   53.7618 H      1224      M_A    0.0000
   8574 H         143.4184  138.2878   52.6135 H      1224      M_A    0.0000
   8575 H         144.1609  137.9240   51.0307 H      1224      M_A    0.0000
   8576 C         145.1897  140.1055   51.6884 C.3    1225      M_A    0.0000
   8577 C         146.3598  141.0710   51.8303 C.3    1225      M_A    0.0000
   8578 O         146.5195  141.3967   53.2103 O.3    1225      M_A    0.0000
   8579 H         144.2672  140.5757   52.0473 H      1225      M_A    0.0000
   8580 H         145.0502  139.8655   50.6282 H      1225      M_A    0.0000
   8581 H         146.1242  141.9778   51.2557 H      1225      M_A    0.0000
   8582 H         147.2880  140.6355   51.4366 H      1225      M_A    0.0000
   8583 C         147.8872  141.4524   53.5552 C.3    1226      M_A    0.0000
   8584 C         148.6807  140.2738   53.0051 C.3    1226      M_A    0.0000
   8585 O         150.0338  140.3889   53.4430 O.3    1226      M_A    0.0000
   8586 H         147.9766  141.4906   54.6468 H      1226      M_A    0.0000
   8587 H         148.3044  142.3831   53.1544 H      1226      M_A    0.0000
   8588 H         148.6367  140.3167   51.9077 H      1226      M_A    0.0000
   8589 H         148.2577  139.3165   53.3377 H      1226      M_A    0.0000
   8590 C         150.7495  139.2032   53.1702 C.3    1227      M_A    0.0000
   8591 C         152.2579  139.4178   53.1529 C.3    1227      M_A    0.0000
   8592 O         152.6732  139.6388   51.8058 O.3    1227      M_A    0.0000
   8593 H         150.4149  138.8001   52.2075 H      1227      M_A    0.0000
   8594 H         150.5015  138.4673   53.9433 H      1227      M_A    0.0000
   8595 H         152.7351  138.5102   53.5484 H      1227      M_A    0.0000
   8596 H         152.5479  140.2709   53.7808 H      1227      M_A    0.0000
   8597 C         154.0130  139.2336   51.6235 C.3    1228      M_A    0.0000
   8598 C         155.0127  140.2438   52.1725 C.3    1228      M_A    0.0000
   8599 O         156.2018  140.1844   51.3863 O.3    1228      M_A    0.0000
   8600 H         154.1916  139.0688   50.5548 H      1228      M_A    0.0000
   8601 H         154.1543  138.2753   52.1360 H      1228      M_A    0.0000
   8602 H         155.2368  139.9695   53.2129 H      1228      M_A    0.0000
   8603 H         154.6019  141.2622   52.1571 H      1228      M_A    0.0000
   8604 C         156.9028  138.9839   51.6309 C.3    1229      M_A    0.0000
   8605 C         158.3297  139.2232   52.1084 C.3    1229      M_A    0.0000
   8606 O         159.1344  139.5795   50.9853 O.3    1229      M_A    0.0000
   8607 H         156.9076  138.3827   50.7146 H      1229      M_A    0.0000
   8608 H         156.3591  138.4191   52.3966 H      1229      M_A    0.0000
   8609 H         158.7003  138.2894   52.5542 H      1229      M_A    0.0000
   8610 H         158.3702  140.0163   52.8670 H      1229      M_A    0.0000
   8611 C         160.4604  139.1268   51.1572 C.3    1230      M_A    0.0000
   8612 C         161.4666  139.9323   50.3448 C.3    1230      M_A    0.0000
   8613 O         162.7359  139.2845   50.4165 O.3    1230      M_A    0.0000
   8614 H         160.5127  138.0679   50.8795 H      1230      M_A    0.0000
   8615 H         160.7143  139.2048   52.2204 H      1230      M_A    0.0000
   8616 H         161.5329  140.9370   50.7853 H      1230      M_A    0.0000
   8617 H         161.1510  140.0267   49.2972 H      1230      M_A    0.0000
   8618 C         163.7625  140.1473   49.9758 C.3    1231      M_A    0.0000
   8619 C         165.1534  139.5629   50.1887 C.3    1231      M_A    0.0000
   8620 O         166.1068  140.6236   50.1459 O.3    1231      M_A    0.0000
   8621 H         163.6713  141.1048   50.5012 H      1231      M_A    0.0000
   8622 H         163.6144  140.3388   48.9070 H      1231      M_A    0.0000
   8623 H         165.3502  138.8487   49.3769 H      1231      M_A    0.0000
   8624 H         165.2224  139.0335   51.1485 H      1231      M_A    0.0000
   8625 C         165.8360  141.4953   49.0691 C.3    1232      M_A    0.0000
   8626 C         167.0625  142.2850   48.6294 C.3    1232      M_A    0.0000
   8627 O         167.0448  143.5562   49.2773 O.3    1232      M_A    0.0000
   8628 H         165.0312  142.1798   49.3604 H      1232      M_A    0.0000
   8629 H         165.4744  140.8965   48.2256 H      1232      M_A    0.0000
   8630 H         167.0083  142.4187   47.5398 H      1232      M_A    0.0000
   8631 H         167.9908  141.7513   48.8733 H      1232      M_A    0.0000
   8632 C         168.0773  144.3826   48.7839 C.3    1233      M_A    0.0000
   8633 C         169.4602  143.7714   48.9723 C.3    1233      M_A    0.0000
   8634 O         170.4232  144.8233   49.0163 O.3    1233      M_A    0.0000
   8635 H         168.0235  145.3555   49.2855 H      1233      M_A    0.0000
   8636 H         167.9022  144.5492   47.7150 H      1233      M_A    0.0000
   8637 H         169.6614  143.1143   48.1145 H      1233      M_A    0.0000
   8638 H         169.5121  143.1750   49.8930 H      1233      M_A    0.0000
   8639 C         171.6446  144.3601   49.5515 C.3    1234      M_A    0.0000
   8640 C         172.8514  144.8100   48.7375 C.3    1234      M_A    0.0000
   8641 O         173.9580  143.9676   49.0562 O.3    1234      M_A    0.0000
   8642 H         171.6149  143.2661   49.6087 H      1234      M_A    0.0000
   8643 H         171.7388  144.7442   50.5735 H      1234      M_A    0.0000
   8644 H         173.0795  145.8492   49.0133 H      1234      M_A    0.0000
   8645 H         172.6450  144.7685   47.6597 H      1234      M_A    0.0000
   8646 C         175.0837  144.3046   48.2739 C.3    1235      M_A    0.0000
   8647 C         176.3671  143.6596   48.7820 C.3    1235      M_A    0.0000
   8648 O         177.4781  144.4291   48.3246 O.3    1235      M_A    0.0000
   8649 H         175.1907  145.3952   48.2572 H      1235      M_A    0.0000
   8650 H         174.8988  143.9726   47.2460 H      1235      M_A    0.0000
   8651 H         176.4217  142.6414   48.3717 H      1235      M_A    0.0000
   8652 H         176.3775  143.5988   49.8785 H      1235      M_A    0.0000
   8653 C         177.5888  144.3599   46.9191 C.3    1236      M_A    0.0000
   8654 C         179.0361  144.3177   46.4447 C.3    1236      M_A    0.0000
   8655 O         179.3168  145.5174   45.7252 O.3    1236      M_A    0.0000
   8656 H         177.0728  145.2211   46.4795 H      1236      M_A    0.0000
   8657 H         177.0740  143.4543   46.5787 H      1236      M_A    0.0000
   8658 H         179.1520  143.4477   45.7831 H      1236      M_A    0.0000
   8659 H         179.7310  144.2138   47.2887 H      1236      M_A    0.0000
   8660 C         180.7096  145.7132   45.6048 C.3    1237      M_A    0.0000
   8661 C         181.0642  147.0838   45.0415 C.3    1237      M_A    0.0000
   8662 O         181.8099  146.9050   43.8383 O.3    1237      M_A    0.0000
   8663 H         181.1252  144.9245   44.9674 H      1237      M_A    0.0000
   8664 H         181.1580  145.6080   46.5992 H      1237      M_A    0.0000
   8665 H         181.6761  147.6102   45.7874 H      1237      M_A    0.0000
   8666 H         180.1634  147.6792   44.8409 H      1237      M_A    0.0000
   8667 C         181.5980  147.9849   42.9543 C.3    1238      M_A    0.0000
   8668 C         182.6917  148.1053   41.9004 C.3    1238      M_A    0.0000
   8669 O         183.7626  148.8795   42.4387 O.3    1238      M_A    0.0000
   8670 H         181.5309  148.9115   43.5356 H      1238      M_A    0.0000
   8671 H         180.6343  147.8351   42.4545 H      1238      M_A    0.0000
   8672 H         182.2652  148.6133   41.0241 H      1238      M_A    0.0000
   8673 H         183.0598  147.1179   41.5911 H      1238      M_A    0.0000
   8674 C         185.0054  148.4181   41.9536 C.3    1239      M_A    0.0000
   8675 C         186.1780  148.8754   42.8122 C.3    1239      M_A    0.0000
   8676 O         187.3122  149.0738   41.9695 O.3    1239      M_A    0.0000
   8677 H         185.1350  148.7656   40.9223 H      1239      M_A    0.0000
   8678 H         184.9810  147.3227   41.9349 H      1239      M_A    0.0000
   8679 H         186.3901  148.0857   43.5467 H      1239      M_A    0.0000
   8680 H         185.9421  149.8032   43.3503 H      1239      M_A    0.0000
   8681 C         188.4137  149.5434   42.7170 C.3    1240      M_A    0.0000
   8682 C         189.0053  150.8273   42.1488 C.3    1240      M_A    0.0000
   8683 O         190.4251  150.6945   42.1000 O.3    1240      M_A    0.0000
   8684 H         189.1786  148.7593   42.7528 H      1240      M_A    0.0000
   8685 H         188.0779  149.7277   43.7438 H      1240      M_A    0.0000
   8686 H         188.7287  151.6544   42.8177 H      1240      M_A    0.0000
   8687 H         188.6125  151.0391   41.1454 H      1240      M_A    0.0000
   8688 C         190.9835  151.6291   41.2015 C.3    1241      M_A    0.0000
   8689 C         192.1279  152.4248   41.8168 C.3    1241      M_A    0.0000
   8690 O         192.1274  153.7363   41.2548 O.3    1241      M_A    0.0000
   8691 H         190.1939  152.3076   40.8589 H      1241      M_A    0.0000
   8692 H         191.3562  151.0838   40.3270 H      1241      M_A    0.0000
   8693 H         193.0688  151.9122   41.5719 H      1241      M_A    0.0000
   8694 H         192.0325  152.4835   42.9093 H      1241      M_A    0.0000
   8695 C         192.6488  154.6732   42.1730 C.3    1242      M_A    0.0000
   8696 C         193.8544  155.4259   41.6240 C.3    1242      M_A    0.0000
   8697 O         194.6348  155.9013   42.7198 O.3    1242      M_A    0.0000
   8698 H         192.9193  154.1511   43.0978 H      1242      M_A    0.0000
   8699 H         191.8580  155.3920   42.4158 H      1242      M_A    0.0000
   8700 H         193.4845  156.2742   41.0310 H      1242      M_A    0.0000
   8701 H         194.4664  154.7836   40.9768 H      1242      M_A    0.0000
   8702 C         193.9701  156.9527   43.3873 C.3    1243      M_A    0.0000
   8703 C         194.7755  158.2460   43.3953 C.3    1243      M_A    0.0000
   8704 O         195.6630  158.2255   44.5123 O.3    1243      M_A    0.0000
   8705 H         193.7508  156.6387   44.4141 H      1243      M_A    0.0000
   8706 H         193.0139  157.1295   42.8820 H      1243      M_A    0.0000
   8707 H         194.0715  159.0846   43.4910 H      1243      M_A    0.0000
   8708 H         195.3451  158.3685   42.4644 H      1243      M_A    0.0000
   8709 C         196.9929  158.0125   44.0897 C.3    1244      M_A    0.0000
   8710 C         198.0172  158.5940   45.0562 C.3    1244      M_A    0.0000
   8711 O         199.2146  158.8814   44.3355 O.3    1244      M_A    0.0000
   8712 H         197.1232  158.4504   43.0936 H      1244      M_A    0.0000
   8713 H         197.1562  156.9324   44.0022 H      1244      M_A    0.0000
   8714 H         198.2178  157.8420   45.8322 H      1244      M_A    0.0000
   8715 H         197.6400  159.5059   45.5381 H      1244      M_A    0.0000
   8716 C         199.9668  159.8779   44.9942 C.3    1245      M_A    0.0000
   8717 C         201.3119  160.1365   44.3268 C.3    1245      M_A    0.0000
   8718 O         202.3464  159.9321   45.2879 O.3    1245      M_A    0.0000
   8719 H         200.1151  159.5788   46.0380 H      1245      M_A    0.0000
   8720 H         199.3828  160.8051   44.9935 H      1245      M_A    0.0000
   8721 H         201.3241  161.1789   43.9786 H      1245      M_A    0.0000
   8722 H         201.4641  159.4747   43.4636 H      1245      M_A    0.0000
   8723 C         203.6123  159.9167   44.6635 C.3    1246      M_A    0.0000
   8724 C         204.5239  161.0341   45.1550 C.3    1246      M_A    0.0000
   8725 O         205.6185  161.1636   44.2490 O.3    1246      M_A    0.0000
   8726 H         203.4740  159.9924   43.5789 H      1246      M_A    0.0000
   8727 H         204.0858  158.9506   44.8718 H      1246      M_A    0.0000
   8728 H         204.8934  160.7577   46.1526 H      1246      M_A    0.0000
   8729 H         203.9836  161.9872   45.2309 H      1246      M_A    0.0000
   8730 C         205.1625  161.5288   42.9639 C.3    1247      M_A    0.0000
   8731 C         206.2767  162.0695   42.0765 C.3    1247      M_A    0.0000
   8732 O         206.4125  163.4698   42.3146 O.3    1247      M_A    0.0000
   8733 H         204.3675  162.2759   43.0685 H      1247      M_A    0.0000
   8734 H         204.7259  160.6423   42.4902 H      1247      M_A    0.0000
   8735 H         205.9935  161.8928   41.0293 H      1247      M_A    0.0000
   8736 H         207.2292  161.5601   42.2748 H      1247      M_A    0.0000
   8737 C         207.1350  163.7063   43.5039 C.3    1248      M_A    0.0000
   8738 C         207.4190  165.1853   43.7350 C.3    1248      M_A    0.0000
   8739 O         208.6118  165.3067   44.5086 O.3    1248      M_A    0.0000
   8740 H         208.0745  163.1433   43.4664 H      1248      M_A    0.0000
   8741 H         206.5483  163.3189   44.3445 H      1248      M_A    0.0000
   8742 H         206.5695  165.6127   44.2859 H      1248      M_A    0.0000
   8743 H         207.5302  165.7246   42.7848 H      1248      M_A    0.0000
   8744 C         209.0301  166.6534   44.5731 C.3    1249      M_A    0.0000
   8745 C         209.0228  167.2038   45.9938 C.3    1249      M_A    0.0000
   8746 O         209.1618  168.6227   45.9355 O.3    1249      M_A    0.0000
   8747 H         208.3798  167.2582   43.9310 H      1249      M_A    0.0000
   8748 H         210.0472  166.7163   44.1701 H      1249      M_A    0.0000
   8749 H         209.8743  166.7654   46.5329 H      1249      M_A    0.0000
   8750 H         208.0969  166.9379   46.5212 H      1249      M_A    0.0000
   8751 C         209.2948  169.0570   44.5990 C.3    1250      M_A    0.0000
   8752 C         209.8738  170.4622   44.4923 C.3    1250      M_A    0.0000
   8753 O         208.8132  171.4061   44.6341 O.3    1250      M_A    0.0000
   8754 H         208.3133  169.0156   44.1131 H      1250      M_A    0.0000
   8755 H         209.9552  168.3569   44.0750 H      1250      M_A    0.0000
   8756 H         210.3372  170.5648   43.5010 H      1250      M_A    0.0000
   8757 H         210.6396  170.6387   45.2594 H      1250      M_A    0.0000
   8758 C         207.9789  171.3945   43.4955 C.3    1251      M_A    0.0000
   8759 C         207.3517  172.7538   43.2124 C.3    1251      M_A    0.0000
   8760 O         206.1775  172.8913   44.0112 O.3    1251      M_A    0.0000
   8761 H         207.1965  170.6402   43.6365 H      1251      M_A    0.0000
   8762 H         208.5815  171.0914   42.6318 H      1251      M_A    0.0000
   8763 H         207.0866  172.7908   42.1464 H      1251      M_A    0.0000
   8764 H         208.0525  173.5710   43.4299 H      1251      M_A    0.0000
   8765 C         205.9403  174.2478   44.3212 C.3    1252      M_A    0.0000
   8766 C         206.2379  174.5786   45.7784 C.3    1252      M_A    0.0000
   8767 O         205.8130  175.9153   46.0401 O.3    1252      M_A    0.0000
   8768 H         204.8976  174.4888   44.0851 H      1252      M_A    0.0000
   8769 H         206.5782  174.8635   43.6769 H      1252      M_A    0.0000
   8770 H         207.3228  174.4931   45.9319 H      1252      M_A    0.0000
   8771 H         205.7296  173.8822   46.4586 H      1252      M_A    0.0000
   8772 C         204.8100  176.3082   45.1278 C.3    1253      M_A    0.0000
   8773 C         205.3614  177.1177   43.9607 C.3    1253      M_A    0.0000
   8774 O         205.3711  178.4972   44.3247 O.3    1253      M_A    0.0000
   8775 H         204.0503  176.8885   45.6636 H      1253      M_A    0.0000
   8776 H         204.3262  175.4047   44.7398 H      1253      M_A    0.0000
   8777 H         204.7002  176.9624   43.0966 H      1253      M_A    0.0000
   8778 H         206.3753  176.7924   43.6917 H      1253      M_A    0.0000
   8779 C         206.6842  179.0141   44.2882 C.3    1254      M_A    0.0000
   8780 C         206.9445  180.0360   45.3879 C.3    1254      M_A    0.0000
   8781 O         206.9181  181.3422   44.8144 O.3    1254      M_A    0.0000
   8782 H         206.8609  179.4650   43.3050 H      1254      M_A    0.0000
   8783 H         207.3848  178.1792   44.4021 H      1254      M_A    0.0000
   8784 H         207.9376  179.8329   45.8128 H      1254      M_A    0.0000
   8785 H         206.1966  179.9614   46.1886 H      1254      M_A    0.0000
   8786 C         206.9425  182.3305   45.8220 C.3    1255      M_A    0.0000
   8787 C         206.5201  183.7021   45.3104 C.3    1255      M_A    0.0000
   8788 O         207.5824  184.2458   44.5282 O.3    1255      M_A    0.0000
   8789 H         207.9520  182.3806   46.2457 H      1255      M_A    0.0000
   8790 H         206.2607  182.0214   46.6222 H      1255      M_A    0.0000
   8791 H         206.3279  184.3454   46.1806 H      1255      M_A    0.0000
   8792 H         205.6035  183.6399   44.7087 H      1255      M_A    0.0000
   8793 C         207.3892  185.6278   44.3154 C.3    1256      M_A    0.0000
   8794 C         207.6778  186.0475   42.8795 C.3    1256      M_A    0.0000
   8795 O         208.1601  187.3904   42.8834 O.3    1256      M_A    0.0000
   8796 H         208.0295  186.1864   45.0075 H      1256      M_A    0.0000
   8797 H         206.3479  185.8697   44.5567 H      1256      M_A    0.0000
   8798 H         206.7383  185.9881   42.3123 H      1256      M_A    0.0000
   8799 H         208.4159  185.3841   42.4093 H      1256      M_A    0.0000
   8800 C         209.4967  187.4397   43.3347 C.3    1257      M_A    0.0000
   8801 C         210.1216  188.8197   43.1721 C.3    1257      M_A    0.0000
   8802 O         211.0390  189.0357   44.2433 O.3    1257      M_A    0.0000
   8803 H         210.0837  186.6931   42.7878 H      1257      M_A    0.0000
   8804 H         209.5111  187.1628   44.3950 H      1257      M_A    0.0000
   8805 H         209.3151  189.5652   43.2129 H      1257      M_A    0.0000
   8806 H         210.6397  188.9133   42.2084 H      1257      M_A    0.0000
   8807 C         211.9058  190.1103   43.9495 C.3    1258      M_A    0.0000
   8808 C         213.3550  189.8133   44.3140 C.3    1258      M_A    0.0000
   8809 O         213.7605  190.7110   45.3463 O.3    1258      M_A    0.0000
   8810 H         211.5582  191.0026   44.4825 H      1258      M_A    0.0000
   8811 H         211.8423  190.3185   42.8754 H      1258      M_A    0.0000
   8812 H         213.9705  189.9705   43.4171 H      1258      M_A    0.0000
   8813 H         213.4787  188.7746   44.6487 H      1258      M_A    0.0000
   8814 C         214.6319  191.6975   44.8363 C.3    1259      M_A    0.0000
   8815 C         215.7928  191.1053   44.0471 C.3    1259      M_A    0.0000
   8816 O         216.4469  190.1301   44.8577 O.3    1259      M_A    0.0000
   8817 H         215.0109  192.3010   45.6689 H      1259      M_A    0.0000
   8818 H         214.0545  192.3597   44.1812 H      1259      M_A    0.0000
   8819 H         216.4898  191.9198   43.8045 H      1259      M_A    0.0000
   8820 H         215.4475  190.6462   43.1111 H      1259      M_A    0.0000
   8821 C         217.5346  190.7045   45.5501 C.3    1260      M_A    0.0000
   8822 C         218.8209  190.6979   44.7335 C.3    1260      M_A    0.0000
   8823 O         219.6478  189.6288   45.1909 O.3    1260      M_A    0.0000
   8824 H         217.6825  190.1624   46.4911 H      1260      M_A    0.0000
   8825 H         217.2744  191.7394   45.7997 H      1260      M_A    0.0000
   8826 H         219.3292  191.6594   44.8918 H      1260      M_A    0.0000
   8827 H         218.6136  190.5811   43.6614 H      1260      M_A    0.0000
   8828 C         220.0271  188.7960   44.1162 C.3    1261      M_A    0.0000
   8829 C         221.5335  188.5790   44.0439 C.3    1261      M_A    0.0000
   8830 O         221.9981  189.0167   42.7679 O.3    1261      M_A    0.0000
   8831 H         219.6643  189.2365   43.1805 H      1261      M_A    0.0000
   8832 H         219.5314  187.8268   44.2417 H      1261      M_A    0.0000
   8833 H         221.7285  187.5042   44.1656 H      1261      M_A    0.0000
   8834 H         222.0551  189.1245   44.8417 H      1261      M_A    0.0000
   8835 C         220.9164  189.2105   41.8820 C.3    1262      M_A    0.0000
   8836 C         221.3685  189.5544   40.4683 C.3    1262      M_A    0.0000
   8837 O         221.8308  190.9042   40.4513 O.3    1262      M_A    0.0000
   8838 H         220.2729  190.0054   42.2760 H      1262      M_A    0.0000
   8839 H         220.3260  188.2876   41.8544 H      1262      M_A    0.0000
   8840 H         220.5038  189.4457   39.7986 H      1262      M_A    0.0000
   8841 H         222.1652  188.8796   40.1277 H      1262      M_A    0.0000
   8842 C         221.9402  191.3780   39.1262 C.3    1263      M_A    0.0000
   8843 C         222.2439  192.8695   39.0583 C.3    1263      M_A    0.0000
   8844 O         221.0497  193.5638   38.7013 O.3    1263      M_A    0.0000
   8845 H         221.0085  191.1582   38.5926 H      1263      M_A    0.0000
   8846 H         222.7461  190.8256   38.6298 H      1263      M_A    0.0000
   8847 H         223.0128  193.0253   38.2885 H      1263      M_A    0.0000
   8848 H         222.6246  193.2444   40.0178 H      1263      M_A    0.0000
   8849 C         221.1398  194.9272   39.0556 C.3    1264      M_A    0.0000
   8850 C         220.3427  195.2626   40.3100 C.3    1264      M_A    0.0000
   8851 O         219.1663  195.9739   39.9280 O.3    1264      M_A    0.0000
   8852 H         220.7920  195.5365   38.2136 H      1264      M_A    0.0000
   8853 H         222.1951  195.1681   39.2269 H      1264      M_A    0.0000
   8854 H         220.9709  195.8947   40.9533 H      1264      M_A    0.0000
   8855 H         220.0701  194.3553   40.8654 H      1264      M_A    0.0000
   8856 C         218.5036  196.4890   41.0630 C.3    1265      M_A    0.0000
   8857 C         216.9865  196.4229   40.9383 C.3    1265      M_A    0.0000
   8858 O         216.4144  197.4265   41.7757 O.3    1265      M_A    0.0000
   8859 H         218.8241  197.5250   41.2215 H      1265      M_A    0.0000
   8860 H         218.8167  195.9065   41.9368 H      1265      M_A    0.0000
   8861 H         216.6610  195.4270   41.2704 H      1265      M_A    0.0000
   8862 H         216.6636  196.5709   39.8991 H      1265      M_A    0.0000
   8863 C         216.5638  198.7050   41.1962 C.3    1266      M_A    0.0000
   8864 C         217.1555  199.7232   42.1630 C.3    1266      M_A    0.0000
   8865 O         217.1853  200.9981   41.5231 O.3    1266      M_A    0.0000
   8866 H         215.5867  199.0487   40.8380 H      1266      M_A    0.0000
   8867 H         217.2234  198.6123   40.3260 H      1266      M_A    0.0000
   8868 H         218.1776  199.4035   42.4101 H      1266      M_A    0.0000
   8869 H         216.5703  199.7813   43.0905 H      1266      M_A    0.0000
   8870 C         217.7484  201.9718   42.3760 C.3    1267      M_A    0.0000
   8871 C         219.0109  202.5997   41.7986 C.3    1267      M_A    0.0000
   8872 O         219.7402  203.2177   42.8579 O.3    1267      M_A    0.0000
   8873 H         217.9663  201.5107   43.3460 H      1267      M_A    0.0000
   8874 H         217.0015  202.7566   42.5409 H      1267      M_A    0.0000
   8875 H         218.7079  203.3559   41.0608 H      1267      M_A    0.0000
   8876 H         219.6377  201.8498   41.2977 H      1267      M_A    0.0000
   8877 C         221.1276  203.1726   42.6015 C.3    1268      M_A    0.0000
   8878 C         221.8428  204.4546   43.0096 C.3    1268      M_A    0.0000
   8879 O         222.3833  204.2802   44.3185 O.3    1268      M_A    0.0000
   8880 H         221.2853  202.9760   41.5349 H      1268      M_A    0.0000
   8881 H         221.5527  202.3318   43.1613 H      1268      M_A    0.0000
   8882 H         221.1049  205.2691   43.0139 H      1268      M_A    0.0000
   8883 H         222.6438  204.7084   42.3025 H      1268      M_A    0.0000
   8884 C         223.3273  205.2892   44.6075 C.3    1269      M_A    0.0000
   8885 C         224.7650  204.7946   44.5094 C.3    1269      M_A    0.0000
   8886 O         224.9275  203.6828   45.3888 O.3    1269      M_A    0.0000
   8887 H         223.1311  205.6816   45.6118 H      1269      M_A    0.0000
   8888 H         223.1814  206.1094   43.8955 H      1269      M_A    0.0000
   8889 H         225.4287  205.6154   44.8158 H      1269      M_A    0.0000
   8890 H         225.0181  204.5016   43.4817 H      1269      M_A    0.0000
   8891 C         225.5859  202.6199   44.7336 C.3    1270      M_A    0.0000
   8892 C         224.7547  202.0187   43.6071 C.3    1270      M_A    0.0000
   8893 O         225.6123  201.2476   42.7670 O.3    1270      M_A    0.0000
   8894 H         225.8356  201.8486   45.4710 H      1270      M_A    0.0000
   8895 H         226.5263  203.0017   44.3201 H      1270      M_A    0.0000
   8896 H         224.3113  202.8447   43.0333 H      1270      M_A    0.0000
   8897 H         223.9458  201.3879   43.9994 H      1270      M_A    0.0000
   8898 C         226.9317  201.7479   42.8064 C.3    1271      M_A    0.0000
   8899 C         226.9939  203.2577   42.6116 C.3    1271      M_A    0.0000
   8900 O         227.4009  203.5297   41.2713 O.3    1271      M_A    0.0000
   8901 H         227.5257  201.2434   42.0359 H      1271      M_A    0.0000
   8902 H         227.3656  201.4944   43.7802 H      1271      M_A    0.0000
   8903 H         227.7333  203.6615   43.3174 H      1271      M_A    0.0000
   8904 H         226.0217  203.7275   42.8123 H      1271      M_A    0.0000
   8905 C         226.6653  204.6087   40.7354 C.3    1272      M_A    0.0000
   8906 C         225.1679  204.4817   40.9863 C.3    1272      M_A    0.0000
   8907 O         224.5520  203.9442   39.8169 O.3    1272      M_A    0.0000
   8908 H         226.8632  204.6735   39.6594 H      1272      M_A    0.0000
   8909 H         227.0283  205.5341   41.1967 H      1272      M_A    0.0000
   8910 H         224.7710  205.4859   41.1914 H      1272      M_A    0.0000
   8911 H         224.9603  203.8372   41.8509 H      1272      M_A    0.0000
   8912 C         223.2145  203.5778   40.0804 C.3    1273      M_A    0.0000
   8913 C         222.2404  204.1228   39.0433 C.3    1273      M_A    0.0000
   8914 O         221.8912  205.4591   39.4012 O.3    1273      M_A    0.0000
   8915 H         222.9393  203.9336   41.0798 H      1273      M_A    0.0000
   8916 H         223.1537  202.4836   40.0884 H      1273      M_A    0.0000
   8917 H         221.3445  203.4862   39.0506 H      1273      M_A    0.0000
   8918 H         222.6772  204.1050   38.0358 H      1273      M_A    0.0000
   8919 C         222.9691  206.3383   39.1608 C.3    1274      M_A    0.0000
   8920 C         222.5526  207.5797   38.3818 C.3    1274      M_A    0.0000
   8921 O         222.2353  207.1958   37.0448 O.3    1274      M_A    0.0000
   8922 H         223.7534  205.7983   38.6185 H      1274      M_A    0.0000
   8923 H         223.3839  206.6449   40.1277 H      1274      M_A    0.0000
   8924 H         223.3996  208.2801   38.3799 H      1274      M_A    0.0000
   8925 H         221.6884  208.0728   38.8468 H      1274      M_A    0.0000
   8926 C         222.1735  208.3264   36.2019 C.3    1275      M_A    0.0000
   8927 C         223.1911  208.2716   35.0692 C.3    1275      M_A    0.0000
   8928 O         224.2846  209.1284   35.3946 O.3    1275      M_A    0.0000
   8929 H         222.3291  209.2280   36.8053 H      1275      M_A    0.0000
   8930 H         221.1656  208.3815   35.7753 H      1275      M_A    0.0000
   8931 H         222.6985  208.6240   34.1521 H      1275      M_A    0.0000
   8932 H         223.5516  207.2474   34.9044 H      1275      M_A    0.0000
   8933 C         225.0070  208.6199   36.4956 C.3    1276      M_A    0.0000
   8934 C         225.0563  209.5933   37.6666 C.3    1276      M_A    0.0000
   8935 O         226.4215  209.8823   37.9642 O.3    1276      M_A    0.0000
   8936 H         226.0231  208.3710   36.1690 H      1276      M_A    0.0000
   8937 H         224.5257  207.6911   36.8222 H      1276      M_A    0.0000
   8938 H         224.5782  209.1107   38.5306 H      1276      M_A    0.0000
   8939 H         224.5163  210.5219   37.4381 H      1276      M_A    0.0000
   8940 C         226.5344  210.5264   39.2152 C.3    1277      M_A    0.0000
   8941 C         227.8697  211.2387   39.3914 C.3    1277      M_A    0.0000
   8942 O         228.1566  211.3346   40.7857 O.3    1277      M_A    0.0000
   8943 H         226.3947  209.7850   40.0100 H      1277      M_A    0.0000
   8944 H         225.7240  211.2595   39.2979 H      1277      M_A    0.0000
   8945 H         227.7788  212.2442   38.9571 H      1277      M_A    0.0000
   8946 H         228.6793  210.7042   38.8765 H      1277      M_A    0.0000
   8947 C         229.1203  212.3369   41.0295 C.3    1278      M_A    0.0000
   8948 C         230.4119  212.1118   40.2534 C.3    1278      M_A    0.0000
   8949 O         231.3939  213.0349   40.7218 O.3    1278      M_A    0.0000
   8950 H         229.3283  212.3753   42.1048 H      1278      M_A    0.0000
   8951 H         228.6917  213.3027   40.7388 H      1278      M_A    0.0000
   8952 H         230.2051  212.2921   39.1891 H      1278      M_A    0.0000
   8953 H         230.7760  211.0826   40.3723 H      1278      M_A    0.0000
   8954 C         232.4825  213.1034   39.8257 C.3    1279      M_A    0.0000
   8955 C         233.2797  214.3942   39.9667 C.3    1279      M_A    0.0000
   8956 O         232.8925  215.2874   38.9236 O.3    1279      M_A    0.0000
   8957 H         232.1059  213.0028   38.8014 H      1279      M_A    0.0000
   8958 H         233.1430  212.2514   40.0226 H      1279      M_A    0.0000
   8959 H         234.3465  214.1471   39.8722 H      1279      M_A    0.0000
   8960 H         233.1118  214.8633   40.9454 H      1279      M_A    0.0000
   8961 C         233.3676  216.5915   39.1808 C.3    1280      M_A    0.0000
   8962 C         232.9559  217.1069   40.5543 C.3    1280      M_A    0.0000
   8963 O         231.6382  217.6465   40.4644 O.3    1280      M_A    0.0000
   8964 H         232.9977  217.2646   38.3991 H      1280      M_A    0.0000
   8965 H         234.4615  216.5768   39.1171 H      1280      M_A    0.0000
   8966 H         233.6644  217.8940   40.8486 H      1280      M_A    0.0000
   8967 H         232.9846  216.3074   41.3068 H      1280      M_A    0.0000
   8968 C         230.9695  217.5403   41.7031 C.3    1281      M_A    0.0000
   8969 C         230.7799  218.8888   42.3864 C.3    1281      M_A    0.0000
   8970 O         231.8566  219.0943   43.2997 O.3    1281      M_A    0.0000
   8971 H         231.5342  216.8635   42.3544 H      1281      M_A    0.0000
   8972 H         229.9873  217.0880   41.5249 H      1281      M_A    0.0000
   8973 H         229.8257  218.8628   42.9312 H      1281      M_A    0.0000
   8974 H         230.7458  219.7069   41.6546 H      1281      M_A    0.0000
   8975 C         233.0126  219.5326   42.6184 C.3    1282      M_A    0.0000
   8976 C         234.2177  218.6341   42.8671 C.3    1282      M_A    0.0000
   8977 O         234.9418  219.1394   43.9878 O.3    1282      M_A    0.0000
   8978 H         233.2382  220.5598   42.9267 H      1282      M_A    0.0000
   8979 H         232.7930  219.5480   41.5449 H      1282      M_A    0.0000
   8980 H         234.8511  218.6584   41.9692 H      1282      M_A    0.0000
   8981 H         233.9111  217.5962   43.0541 H      1282      M_A    0.0000
   8982 C         236.1518  218.4331   44.1602 C.3    1283      M_A    0.0000
   8983 C         237.3533  219.3559   44.3222 C.3    1283      M_A    0.0000
   8984 O         238.4889  218.7389   43.7176 O.3    1283      M_A    0.0000
   8985 H         236.3000  217.7681   43.3018 H      1283      M_A    0.0000
   8986 H         236.0587  217.8064   45.0544 H      1283      M_A    0.0000
   8987 H         237.5312  219.4971   45.3975 H      1283      M_A    0.0000
   8988 H         237.1692  220.3367   43.8636 H      1283      M_A    0.0000
   8989 C         238.4075  217.3334   43.8206 C.3    1284      M_A    0.0000
   8990 C         239.7674  216.6798   44.0328 C.3    1284      M_A    0.0000
   8991 O         240.3654  216.4438   42.7591 O.3    1284      M_A    0.0000
   8992 H         237.9364  216.9377   42.9137 H      1284      M_A    0.0000
   8993 H         237.7566  217.0887   44.6676 H      1284      M_A    0.0000
   8994 H         239.6085  215.7259   44.5551 H      1284      M_A    0.0000
   8995 H         240.4240  217.3120   44.6455 H      1284      M_A    0.0000
   8996 C         240.8526  217.6475   42.2054 C.3    1285      M_A    0.0000
   8997 C         242.3571  217.6181   41.9668 C.3    1285      M_A    0.0000
   8998 O         242.9493  218.7264   42.6426 O.3    1285      M_A    0.0000
   8999 H         240.5929  218.4763   42.8738 H      1285      M_A    0.0000
   9000 H         240.3420  217.8173   41.2508 H      1285      M_A    0.0000
   9001 H         242.5316  217.7018   40.8849 H      1285      M_A    0.0000
   9002 H         242.8007  216.6790   42.3238 H      1285      M_A    0.0000
   9003 C         244.3481  218.5630   42.7394 C.3    1286      M_A    0.0000
   9004 C         245.0894  219.8901   42.8415 C.3    1286      M_A    0.0000
   9005 O         246.3686  219.7483   42.2255 O.3    1286      M_A    0.0000
   9006 H         244.7008  218.0001   41.8677 H      1286      M_A    0.0000
   9007 H         244.5625  217.9636   43.6315 H      1286      M_A    0.0000
   9008 H         245.2108  220.1308   43.9070 H      1286      M_A    0.0000
   9009 H         244.5271  220.7007   42.3589 H      1286      M_A    0.0000
   9010 C         247.2162  220.8192   42.5824 C.3    1287      M_A    0.0000
   9011 C         248.3280  221.0525   41.5671 C.3    1287      M_A    0.0000
   9012 O         249.4605  221.5944   42.2451 O.3    1287      M_A    0.0000
   9013 H         247.6444  220.6187   43.5711 H      1287      M_A    0.0000
   9014 H         246.6073  221.7269   42.6614 H      1287      M_A    0.0000
   9015 H         247.9606  221.7688   40.8189 H      1287      M_A    0.0000
   9016 H         248.6055  220.1206   41.0564 H      1287      M_A    0.0000
   9017 C         250.6146  221.5086   41.4368 C.3    1288      M_A    0.0000
   9018 C         251.7395  222.4154   41.9201 C.3    1288      M_A    0.0000
   9019 O         251.7465  223.5997   41.1244 O.3    1288      M_A    0.0000
   9020 H         250.3446  221.7599   40.4048 H      1288      M_A    0.0000
   9021 H         250.9632  220.4697   41.4459 H      1288      M_A    0.0000
   9022 H         252.6886  221.8751   41.7969 H      1288      M_A    0.0000
   9023 H         251.6168  222.6750   42.9801 H      1288      M_A    0.0000
   9024 C         252.9995  224.2452   41.2007 C.3    1289      M_A    0.0000
   9025 C         253.0663  225.2678   42.3282 C.3    1289      M_A    0.0000
   9026 O         252.9128  226.5728   41.7721 O.3    1289      M_A    0.0000
   9027 H         253.2086  224.7292   40.2398 H      1289      M_A    0.0000
   9028 H         253.7691  223.4822   41.3633 H      1289      M_A    0.0000
   9029 H         254.0500  225.1788   42.8102 H      1289      M_A    0.0000
   9030 H         252.2873  225.0853   43.0805 H      1289      M_A    0.0000
   9031 C         252.0227  227.3451   42.5491 C.3    1290      M_A    0.0000
   9032 C         252.2093  228.8430   42.3419 C.3    1290      M_A    0.0000
   9033 O         252.8769  229.3829   43.4814 O.3    1290      M_A    0.0000
   9034 H         252.1614  227.0905   43.6060 H      1290      M_A    0.0000
   9035 H         250.9986  227.0703   42.2723 H      1290      M_A    0.0000
   9036 H         251.2144  229.2987   42.2392 H      1290      M_A    0.0000
   9037 H         252.7883  229.0521   41.4324 H      1290      M_A    0.0000
   9038 C         253.5852  230.5543   43.1366 C.3    1291      M_A    0.0000
   9039 C         254.8050  230.2699   42.2691 C.3    1291      M_A    0.0000
   9040 O         255.7616  231.3094   42.4696 O.3    1291      M_A    0.0000
   9041 H         253.8878  231.0695   44.0554 H      1291      M_A    0.0000
   9042 H         252.9051  231.2184   42.5914 H      1291      M_A    0.0000
   9043 H         254.4800  230.2567   41.2192 H      1291      M_A    0.0000
   9044 H         255.2508  229.2962   42.5123 H      1291      M_A    0.0000
   9045 C         255.4515  232.4337   41.6744 C.3    1292      M_A    0.0000
   9046 C         256.6753  233.2829   41.3543 C.3    1292      M_A    0.0000
   9047 O         256.6281  234.4698   42.1447 O.3    1292      M_A    0.0000
   9048 H         254.6982  233.0380   42.1925 H      1292      M_A    0.0000
   9049 H         255.0068  232.0792   40.7377 H      1292      M_A    0.0000
   9050 H         256.6400  233.5417   40.2867 H      1292      M_A    0.0000
   9051 H         257.6059  232.7349   41.5535 H      1292      M_A    0.0000
   9052 C         257.9251  234.8508   42.5514 C.3    1293      M_A    0.0000
   9053 C         258.2050  236.3295   42.3139 C.3    1293      M_A    0.0000
   9054 O         259.6030  236.4995   42.0847 O.3    1293      M_A    0.0000
   9055 H         258.6592  234.2374   42.0168 H      1293      M_A    0.0000
   9056 H         258.0266  234.6345   43.6210 H      1293      M_A    0.0000
   9057 H         257.9028  236.8819   43.2148 H      1293      M_A    0.0000
   9058 H         257.6340  236.7124   41.4575 H      1293      M_A    0.0000
   9059 C         259.8721  237.7869   41.5721 C.3    1294      M_A    0.0000
   9060 C         260.7287  238.6266   42.5115 C.3    1294      M_A    0.0000
   9061 O         260.2521  239.9712   42.4863 O.3    1294      M_A    0.0000
   9062 H         258.9219  238.2952   41.3725 H      1294      M_A    0.0000
   9063 H         260.3956  237.6729   40.6161 H      1294      M_A    0.0000
   9064 H         261.7661  238.5895   42.1504 H      1294      M_A    0.0000
   9065 H         260.6984  238.2358   43.5374 H      1294      M_A    0.0000
   9066 C         259.1948  240.1090   41.5613 C.3    1295      M_A    0.0000
   9067 C         259.0341  241.5391   41.0610 C.3    1295      M_A    0.0000
   9068 O         258.1006  242.2157   41.9016 O.3    1295      M_A    0.0000
   9069 H         258.2655  239.7671   42.0309 H      1295      M_A    0.0000
   9070 H         259.3977  239.4519   40.7080 H      1295      M_A    0.0000
   9071 H         258.6510  241.4983   40.0317 H      1295      M_A    0.0000
   9072 H         259.9941  242.0726   41.0589 H      1295      M_A    0.0000
   9073 C         258.5818  243.4953   42.2536 C.3    1296      M_A    0.0000
   9074 C         257.9977  244.6025   41.3851 C.3    1296      M_A    0.0000
   9075 O         258.8201  245.7620   41.5073 O.3    1296      M_A    0.0000
   9076 H         259.6753  243.4958   42.1802 H      1296      M_A    0.0000
   9077 H         258.3185  243.6848   43.3003 H      1296      M_A    0.0000
   9078 H         256.9841  244.8215   41.7493 H      1296      M_A    0.0000
   9079 H         257.9352  244.2947   40.3327 H      1296      M_A    0.0000
   9080 C         259.2075  245.9602   42.8502 C.3    1297      M_A    0.0000
   9081 C         259.5370  247.4155   43.1583 C.3    1297      M_A    0.0000
   9082 O         260.9180  247.6410   42.8793 O.3    1297      M_A    0.0000
   9083 H         260.0726  245.3235   43.0677 H      1297      M_A    0.0000
   9084 H         258.3842  245.6350   43.4962 H      1297      M_A    0.0000
   9085 H         259.3362  247.5913   44.2245 H      1297      M_A    0.0000
   9086 H         258.9165  248.1005   42.5651 H      1297      M_A    0.0000
   9087 C         261.2151  249.0205   42.9115 C.3    1298      M_A    0.0000
   9088 C         260.5772  249.7864   41.7592 C.3    1298      M_A    0.0000
   9089 O         261.5659  250.6264   41.1652 O.3    1298      M_A    0.0000
   9090 H         262.3033  249.1498   42.8936 H      1298      M_A    0.0000
   9091 H         260.8472  249.4286   43.8597 H      1298      M_A    0.0000
   9092 H         259.7614  250.3989   42.1681 H      1298      M_A    0.0000
   9093 H         260.1620  249.1035   41.0060 H      1298      M_A    0.0000
   9094 C         262.8387  250.3674   41.7180 C.3    1299      M_A    0.0000
   9095 C         263.6862  251.6258   41.8575 C.3    1299      M_A    0.0000
   9096 O         264.5150  251.7498   40.7027 O.3    1299      M_A    0.0000
   9097 H         263.3555  249.6325   41.0903 H      1299      M_A    0.0000
   9098 H         262.6980  249.9190   42.7080 H      1299      M_A    0.0000
   9099 H         264.3093  251.5183   42.7565 H      1299      M_A    0.0000
   9100 H         263.0590  252.5205   41.9683 H      1299      M_A    0.0000
   9101 C         265.5447  252.6892   40.9255 C.3    1300      M_A    0.0000
   9102 C         265.0324  253.9910   41.5291 C.3    1300      M_A    0.0000
   9103 O         265.1049  255.0146   40.5378 O.3    1300      M_A    0.0000
   9104 H         266.0547  252.8887   39.9761 H      1300      M_A    0.0000
   9105 H         266.2757  252.2414   41.6081 H      1300      M_A    0.0000
   9106 H         265.6773  254.2477   42.3813 H      1300      M_A    0.0000
   9107 H         263.9996  253.8867   41.8875 H      1300      M_A    0.0000
   9108 C         264.1155  255.9965   40.7608 C.3    1301      M_A    0.0000
   9109 C         264.3229  257.2438   39.9107 C.3    1301      M_A    0.0000
   9110 O         264.1470  258.3944   40.7359 O.3    1301      M_A    0.0000
   9111 H         264.1115  256.2613   41.8242 H      1301      M_A    0.0000
   9112 H         263.1390  255.5596   40.5230 H      1301      M_A    0.0000
   9113 H         263.5706  257.2383   39.1095 H      1301      M_A    0.0000
   9114 H         265.3224  257.2563   39.4557 H      1301      M_A    0.0000
   9115 C         263.9207  259.5439   39.9484 C.3    1302      M_A    0.0000
   9116 C         265.1877  260.3589   39.7202 C.3    1302      M_A    0.0000
   9117 O         265.1207  261.5413   40.5160 O.3    1302      M_A    0.0000
   9118 H         263.1571  260.1620   40.4340 H      1302      M_A    0.0000
   9119 H         263.5223  259.2228   38.9794 H      1302      M_A    0.0000
   9120 H         265.2332  260.6257   38.6550 H      1302      M_A    0.0000
   9121 H         266.0862  259.7823   39.9779 H      1302      M_A    0.0000
   9122 C         266.4147  262.0404   40.7787 C.3    1303      M_A    0.0000
   9123 C         266.6126  263.4608   40.2642 C.3    1303      M_A    0.0000
   9124 O         267.9831  263.8213   40.4316 O.3    1303      M_A    0.0000
   9125 H         267.1529  261.3690   40.3256 H      1303      M_A    0.0000
   9126 H         266.5740  262.0269   41.8629 H      1303      M_A    0.0000
   9127 H         265.9737  264.1297   40.8577 H      1303      M_A    0.0000
   9128 H         266.3274  263.5469   39.2072 H      1303      M_A    0.0000
   9129 C         268.1533  265.2156   40.2919 C.3    1304      M_A    0.0000
   9130 C         269.5969  265.6052   39.9993 C.3    1304      M_A    0.0000
   9131 O         270.0349  266.5230   41.0001 O.3    1304      M_A    0.0000
   9132 H         267.8077  265.7089   41.2074 H      1304      M_A    0.0000
   9133 H         267.5162  265.5581   39.4686 H      1304      M_A    0.0000
   9134 H         269.6260  266.0856   39.0112 H      1304      M_A    0.0000
   9135 H         270.2534  264.7249   39.9828 H      1304      M_A    0.0000
   9136 C         271.4399  266.6566   40.9746 C.3    1305      M_A    0.0000
   9137 C         271.8988  268.0894   41.2152 C.3    1305      M_A    0.0000
   9138 O         273.2228  268.2377   40.7044 O.3    1305      M_A    0.0000
   9139 H         271.8130  266.2984   40.0084 H      1305      M_A    0.0000
   9140 H         271.8601  266.0105   41.7537 H      1305      M_A    0.0000
   9141 H         271.8924  268.2711   42.2991 H      1305      M_A    0.0000
   9142 H         271.2263  268.8112   40.7327 H      1305      M_A    0.0000
   9143 C         273.9219  269.2391   41.4122 C.3    1306      M_A    0.0000
   9144 C         274.8920  270.0145   40.5294 C.3    1306      M_A    0.0000
   9145 O         276.1928  269.9494   41.1120 O.3    1306      M_A    0.0000
   9146 H         274.4600  268.7744   42.2461 H      1306      M_A    0.0000
   9147 H         273.1888  269.9351   41.8357 H      1306      M_A    0.0000
   9148 H         274.5522  271.0588   40.4862 H      1306      M_A    0.0000
   9149 H         274.9159  269.6091   39.5090 H      1306      M_A    0.0000
   9150 C         277.1898  270.1312   40.1293 C.3    1307      M_A    0.0000
   9151 C         278.4164  270.8596   40.6641 C.3    1307      M_A    0.0000
   9152 O         279.0414  271.5553   39.5865 O.3    1307      M_A    0.0000
   9153 H         276.7604  270.6844   39.2863 H      1307      M_A    0.0000
   9154 H         277.4919  269.1444   39.7605 H      1307      M_A    0.0000
   9155 H         279.1054  270.1087   41.0755 H      1307      M_A    0.0000
   9156 H         278.1469  271.5651   41.4615 H      1307      M_A    0.0000
   9157 C         280.4432  271.5762   39.7518 C.3    1308      M_A    0.0000
   9158 C         280.9832  272.9763   40.0152 C.3    1308      M_A    0.0000
   9159 O         282.3188  273.0525   39.5188 O.3    1308      M_A    0.0000
   9160 H         280.9125  271.1533   38.8563 H      1308      M_A    0.0000
   9161 H         280.6984  270.9290   40.5985 H      1308      M_A    0.0000
   9162 H         280.9766  273.1447   41.1013 H      1308      M_A    0.0000
   9163 H         280.3594  273.7426   39.5359 H      1308      M_A    0.0000
   9164 C         282.3235  273.1431   38.1101 C.3    1309      M_A    0.0000
   9165 C         281.0837  272.5239   37.4770 C.3    1309      M_A    0.0000
   9166 O         281.1422  272.7242   36.0655 O.3    1309      M_A    0.0000
   9167 H         283.2267  272.6553   37.7261 H      1309      M_A    0.0000
   9168 H         282.3749  274.2025   37.8347 H      1309      M_A    0.0000
   9169 H         280.2009  273.0307   37.8915 H      1309      M_A    0.0000
   9170 H         281.0126  271.4514   37.7022 H      1309      M_A    0.0000
   9171 C         282.0769  271.8466   35.4749 C.3    1310      M_A    0.0000
   9172 C         283.1719  271.4158   36.4428 C.3    1310      M_A    0.0000
   9173 O         284.2687  272.3207   36.3250 O.3    1310      M_A    0.0000
   9174 H         282.5187  272.3356   34.5992 H      1310      M_A    0.0000
   9175 H         281.5394  270.9584   35.1242 H      1310      M_A    0.0000
   9176 H         283.4912  270.4013   36.1655 H      1310      M_A    0.0000
   9177 H         282.8069  271.3997   37.4785 H      1310      M_A    0.0000
   9178 C         285.0799  272.2752   37.4794 C.3    1311      M_A    0.0000
   9179 C         284.5019  273.0810   38.6362 C.3    1311      M_A    0.0000
   9180 O         285.4999  273.9852   39.1077 O.3    1311      M_A    0.0000
   9181 H         286.0799  272.6445   37.2253 H      1311      M_A    0.0000
   9182 H         285.1800  271.2283   37.7873 H      1311      M_A    0.0000
   9183 H         284.2245  272.3787   39.4348 H      1311      M_A    0.0000
   9184 H         283.6059  273.6366   38.3286 H      1311      M_A    0.0000
   9185 H         285.2391  274.3702   39.9704 H      1311      M_A    0.0000
   9186 H         262.5211  275.2311   19.1170 H         0      M_A    0.0000
@<TRIPOS>BOND
     1     1     2      1
     2     1     4      1
     3     1     5      1
     4     1  9186      1
     5     2     3      1
     6     2     6      1
     7     2     7      1
     8     3     8      1
     9     8     9      1
    10     8    11      1
    11     8    12      1
    12     9    10      1
    13     9    13      1
    14     9    14      1
    15    10    15      1
    16    15    16      1
    17    15    18      1
    18    15    19      1
    19    16    17      1
    20    16    20      1
    21    16    21      1
    22    17    22      1
    23    22    23      1
    24    22    25      1
    25    22    26      1
    26    23    24      1
    27    23    27      1
    28    23    28      1
    29    24    29      1
    30    29    30      1
    31    29    32      1
    32    29    33      1
    33    30    31      1
    34    30    34      1
    35    30    35      1
    36    31    36      1
    37    36    37      1
    38    36    39      1
    39    36    40      1
    40    37    38      1
    41    37    41      1
    42    37    42      1
    43    38    43      1
    44    43    44      1
    45    43    46      1
    46    43    47      1
    47    44    45      1
    48    44    48      1
    49    44    49      1
    50    45    50      1
    51    50    51      1
    52    50    53      1
    53    50    54      1
    54    51    52      1
    55    51    55      1
    56    51    56      1
    57    52    57      1
    58    57    58      1
    59    57    60      1
    60    57    61      1
    61    58    59      1
    62    58    62      1
    63    58    63      1
    64    59    64      1
    65    64    65      1
    66    64    67      1
    67    64    68      1
    68    65    66      1
    69    65    69      1
    70    65    70      1
    71    66    71      1
    72    71    72      1
    73    71    74      1
    74    71    75      1
    75    72    73      1
    76    72    76      1
    77    72    77      1
    78    73    78      1
    79    78    79      1
    80    78    81      1
    81    78    82      1
    82    79    80      1
    83    79    83      1
    84    79    84      1
    85    80    85      1
    86    85    86      1
    87    85    88      1
    88    85    89      1
    89    86    87      1
    90    86    90      1
    91    86    91      1
    92    87    92      1
    93    92    93      1
    94    92    95      1
    95    92    96      1
    96    93    94      1
    97    93    97      1
    98    93    98      1
    99    94    99      1
   100    99   100      1
   101    99   102      1
   102    99   103      1
   103   100   101      1
   104   100   104      1
   105   100   105      1
   106   101   106      1
   107   106   107      1
   108   106   109      1
   109   106   110      1
   110   107   108      1
   111   107   111      1
   112   107   112      1
   113   108   113      1
   114   113   114      1
   115   113   116      1
   116   113   117      1
   117   114   115      1
   118   114   118      1
   119   114   119      1
   120   115   120      1
   121   120   121      1
   122   120   123      1
   123   120   124      1
   124   121   122      1
   125   121   125      1
   126   121   126      1
   127   122   127      1
   128   127   128      1
   129   127   130      1
   130   127   131      1
   131   128   129      1
   132   128   132      1
   133   128   133      1
   134   129   134      1
   135   134   135      1
   136   134   137      1
   137   134   138      1
   138   135   136      1
   139   135   139      1
   140   135   140      1
   141   136   141      1
   142   141   142      1
   143   141   144      1
   144   141   145      1
   145   142   143      1
   146   142   146      1
   147   142   147      1
   148   143   148      1
   149   148   149      1
   150   148   151      1
   151   148   152      1
   152   149   150      1
   153   149   153      1
   154   149   154      1
   155   150   155      1
   156   155   156      1
   157   155   158      1
   158   155   159      1
   159   156   157      1
   160   156   160      1
   161   156   161      1
   162   157   162      1
   163   162   163      1
   164   162   165      1
   165   162   166      1
   166   163   164      1
   167   163   167      1
   168   163   168      1
   169   164   169      1
   170   169   170      1
   171   169   172      1
   172   169   173      1
   173   170   171      1
   174   170   174      1
   175   170   175      1
   176   171   176      1
   177   176   177      1
   178   176   179      1
   179   176   180      1
   180   177   178      1
   181   177   181      1
   182   177   182      1
   183   178   183      1
   184   183   184      1
   185   183   186      1
   186   183   187      1
   187   184   185      1
   188   184   188      1
   189   184   189      1
   190   185   190      1
   191   190   191      1
   192   190   193      1
   193   190   194      1
   194   191   192      1
   195   191   195      1
   196   191   196      1
   197   192   197      1
   198   197   198      1
   199   197   200      1
   200   197   201      1
   201   198   199      1
   202   198   202      1
   203   198   203      1
   204   199   204      1
   205   204   205      1
   206   204   207      1
   207   204   208      1
   208   205   206      1
   209   205   209      1
   210   205   210      1
   211   206   211      1
   212   211   212      1
   213   211   214      1
   214   211   215      1
   215   212   213      1
   216   212   216      1
   217   212   217      1
   218   213   218      1
   219   218   219      1
   220   218   221      1
   221   218   222      1
   222   219   220      1
   223   219   223      1
   224   219   224      1
   225   220   225      1
   226   225   226      1
   227   225   228      1
   228   225   229      1
   229   226   227      1
   230   226   230      1
   231   226   231      1
   232   227   232      1
   233   232   233      1
   234   232   235      1
   235   232   236      1
   236   233   234      1
   237   233   237      1
   238   233   238      1
   239   234   239      1
   240   239   240      1
   241   239   242      1
   242   239   243      1
   243   240   241      1
   244   240   244      1
   245   240   245      1
   246   241   246      1
   247   246   247      1
   248   246   249      1
   249   246   250      1
   250   247   248      1
   251   247   251      1
   252   247   252      1
   253   248   253      1
   254   253   254      1
   255   253   256      1
   256   253   257      1
   257   254   255      1
   258   254   258      1
   259   254   259      1
   260   255   260      1
   261   260   261      1
   262   260   263      1
   263   260   264      1
   264   261   262      1
   265   261   265      1
   266   261   266      1
   267   262   267      1
   268   267   268      1
   269   267   270      1
   270   267   271      1
   271   268   269      1
   272   268   272      1
   273   268   273      1
   274   269   274      1
   275   274   275      1
   276   274   277      1
   277   274   278      1
   278   275   276      1
   279   275   279      1
   280   275   280      1
   281   276   281      1
   282   281   282      1
   283   281   284      1
   284   281   285      1
   285   282   283      1
   286   282   286      1
   287   282   287      1
   288   283   288      1
   289   288   289      1
   290   288   291      1
   291   288   292      1
   292   289   290      1
   293   289   293      1
   294   289   294      1
   295   290   295      1
   296   295   296      1
   297   295   298      1
   298   295   299      1
   299   296   297      1
   300   296   300      1
   301   296   301      1
   302   297   302      1
   303   302   303      1
   304   302   305      1
   305   302   306      1
   306   303   304      1
   307   303   307      1
   308   303   308      1
   309   304   309      1
   310   309   310      1
   311   309   312      1
   312   309   313      1
   313   310   311      1
   314   310   314      1
   315   310   315      1
   316   311   316      1
   317   316   317      1
   318   316   319      1
   319   316   320      1
   320   317   318      1
   321   317   321      1
   322   317   322      1
   323   318   323      1
   324   323   324      1
   325   323   326      1
   326   323   327      1
   327   324   325      1
   328   324   328      1
   329   324   329      1
   330   325   330      1
   331   330   331      1
   332   330   333      1
   333   330   334      1
   334   331   332      1
   335   331   335      1
   336   331   336      1
   337   332   337      1
   338   337   338      1
   339   337   340      1
   340   337   341      1
   341   338   339      1
   342   338   342      1
   343   338   343      1
   344   339   344      1
   345   344   345      1
   346   344   347      1
   347   344   348      1
   348   345   346      1
   349   345   349      1
   350   345   350      1
   351   346   351      1
   352   351   352      1
   353   351   354      1
   354   351   355      1
   355   352   353      1
   356   352   356      1
   357   352   357      1
   358   353   358      1
   359   358   359      1
   360   358   361      1
   361   358   362      1
   362   359   360      1
   363   359   363      1
   364   359   364      1
   365   360   365      1
   366   365   366      1
   367   365   368      1
   368   365   369      1
   369   366   367      1
   370   366   370      1
   371   366   371      1
   372   367   372      1
   373   372   373      1
   374   372   375      1
   375   372   376      1
   376   373   374      1
   377   373   377      1
   378   373   378      1
   379   374   379      1
   380   379   380      1
   381   379   382      1
   382   379   383      1
   383   380   381      1
   384   380   384      1
   385   380   385      1
   386   381   386      1
   387   386   387      1
   388   386   389      1
   389   386   390      1
   390   387   388      1
   391   387   391      1
   392   387   392      1
   393   388   393      1
   394   393   394      1
   395   393   396      1
   396   393   397      1
   397   394   395      1
   398   394   398      1
   399   394   399      1
   400   395   400      1
   401   400   401      1
   402   400   403      1
   403   400   404      1
   404   401   402      1
   405   401   405      1
   406   401   406      1
   407   402   407      1
   408   407   408      1
   409   407   410      1
   410   407   411      1
   411   408   409      1
   412   408   412      1
   413   408   413      1
   414   409   414      1
   415   414   415      1
   416   414   417      1
   417   414   418      1
   418   415   416      1
   419   415   419      1
   420   415   420      1
   421   416   421      1
   422   421   422      1
   423   421   424      1
   424   421   425      1
   425   422   423      1
   426   422   426      1
   427   422   427      1
   428   423   428      1
   429   428   429      1
   430   428   431      1
   431   428   432      1
   432   429   430      1
   433   429   433      1
   434   429   434      1
   435   430   435      1
   436   435   436      1
   437   435   438      1
   438   435   439      1
   439   436   437      1
   440   436   440      1
   441   436   441      1
   442   437   442      1
   443   442   443      1
   444   442   445      1
   445   442   446      1
   446   443   444      1
   447   443   447      1
   448   443   448      1
   449   444   449      1
   450   449   450      1
   451   449   452      1
   452   449   453      1
   453   450   451      1
   454   450   454      1
   455   450   455      1
   456   451   456      1
   457   456   457      1
   458   456   459      1
   459   456   460      1
   460   457   458      1
   461   457   461      1
   462   457   462      1
   463   458   463      1
   464   463   464      1
   465   463   466      1
   466   463   467      1
   467   464   465      1
   468   464   468      1
   469   464   469      1
   470   465   470      1
   471   470   471      1
   472   470   473      1
   473   470   474      1
   474   471   472      1
   475   471   475      1
   476   471   476      1
   477   472   477      1
   478   477   478      1
   479   477   480      1
   480   477   481      1
   481   478   479      1
   482   478   482      1
   483   478   483      1
   484   479   484      1
   485   484   485      1
   486   484   487      1
   487   484   488      1
   488   485   486      1
   489   485   489      1
   490   485   490      1
   491   486   491      1
   492   491   492      1
   493   491   494      1
   494   491   495      1
   495   492   493      1
   496   492   496      1
   497   492   497      1
   498   493   498      1
   499   498   499      1
   500   498   501      1
   501   498   502      1
   502   499   500      1
   503   499   503      1
   504   499   504      1
   505   500   505      1
   506   505   506      1
   507   505   508      1
   508   505   509      1
   509   506   507      1
   510   506   510      1
   511   506   511      1
   512   507   512      1
   513   512   513      1
   514   512   515      1
   515   512   516      1
   516   513   514      1
   517   513   517      1
   518   513   518      1
   519   514   519      1
   520   519   520      1
   521   519   522      1
   522   519   523      1
   523   520   521      1
   524   520   524      1
   525   520   525      1
   526   521   526      1
   527   526   527      1
   528   526   529      1
   529   526   530      1
   530   527   528      1
   531   527   531      1
   532   527   532      1
   533   528   533      1
   534   533   534      1
   535   533   536      1
   536   533   537      1
   537   534   535      1
   538   534   538      1
   539   534   539      1
   540   535   540      1
   541   540   541      1
   542   540   543      1
   543   540   544      1
   544   541   542      1
   545   541   545      1
   546   541   546      1
   547   542   547      1
   548   547   548      1
   549   547   550      1
   550   547   551      1
   551   548   549      1
   552   548   552      1
   553   548   553      1
   554   549   554      1
   555   554   555      1
   556   554   557      1
   557   554   558      1
   558   555   556      1
   559   555   559      1
   560   555   560      1
   561   556   561      1
   562   561   562      1
   563   561   564      1
   564   561   565      1
   565   562   563      1
   566   562   566      1
   567   562   567      1
   568   563   568      1
   569   568   569      1
   570   568   571      1
   571   568   572      1
   572   569   570      1
   573   569   573      1
   574   569   574      1
   575   570   575      1
   576   575   576      1
   577   575   578      1
   578   575   579      1
   579   576   577      1
   580   576   580      1
   581   576   581      1
   582   577   582      1
   583   582   583      1
   584   582   585      1
   585   582   586      1
   586   583   584      1
   587   583   587      1
   588   583   588      1
   589   584   589      1
   590   589   590      1
   591   589   592      1
   592   589   593      1
   593   590   591      1
   594   590   594      1
   595   590   595      1
   596   591   596      1
   597   596   597      1
   598   596   599      1
   599   596   600      1
   600   597   598      1
   601   597   601      1
   602   597   602      1
   603   598   603      1
   604   603   604      1
   605   603   606      1
   606   603   607      1
   607   604   605      1
   608   604   608      1
   609   604   609      1
   610   605   610      1
   611   610   611      1
   612   610   613      1
   613   610   614      1
   614   611   612      1
   615   611   615      1
   616   611   616      1
   617   612   617      1
   618   617   618      1
   619   617   620      1
   620   617   621      1
   621   618   619      1
   622   618   622      1
   623   618   623      1
   624   619   624      1
   625   624   625      1
   626   624   627      1
   627   624   628      1
   628   625   626      1
   629   625   629      1
   630   625   630      1
   631   626   631      1
   632   631   632      1
   633   631   634      1
   634   631   635      1
   635   632   633      1
   636   632   636      1
   637   632   637      1
   638   633   638      1
   639   638   639      1
   640   638   641      1
   641   638   642      1
   642   639   640      1
   643   639   643      1
   644   639   644      1
   645   640   645      1
   646   645   646      1
   647   645   648      1
   648   645   649      1
   649   646   647      1
   650   646   650      1
   651   646   651      1
   652   647   652      1
   653   652   653      1
   654   652   655      1
   655   652   656      1
   656   653   654      1
   657   653   657      1
   658   653   658      1
   659   654   659      1
   660   659   660      1
   661   659   662      1
   662   659   663      1
   663   660   661      1
   664   660   664      1
   665   660   665      1
   666   661   666      1
   667   666   667      1
   668   666   669      1
   669   666   670      1
   670   667   668      1
   671   667   671      1
   672   667   672      1
   673   668   673      1
   674   673   674      1
   675   673   676      1
   676   673   677      1
   677   674   675      1
   678   674   678      1
   679   674   679      1
   680   675   680      1
   681   680   681      1
   682   680   683      1
   683   680   684      1
   684   681   682      1
   685   681   685      1
   686   681   686      1
   687   682   687      1
   688   687   688      1
   689   687   690      1
   690   687   691      1
   691   688   689      1
   692   688   692      1
   693   688   693      1
   694   689   694      1
   695   694   695      1
   696   694   697      1
   697   694   698      1
   698   695   696      1
   699   695   699      1
   700   695   700      1
   701   696   701      1
   702   701   702      1
   703   701   704      1
   704   701   705      1
   705   702   703      1
   706   702   706      1
   707   702   707      1
   708   703   708      1
   709   708   709      1
   710   708   711      1
   711   708   712      1
   712   709   710      1
   713   709   713      1
   714   709   714      1
   715   710   715      1
   716   715   716      1
   717   715   718      1
   718   715   719      1
   719   716   717      1
   720   716   720      1
   721   716   721      1
   722   717   722      1
   723   722   723      1
   724   722   725      1
   725   722   726      1
   726   723   724      1
   727   723   727      1
   728   723   728      1
   729   724   729      1
   730   729   730      1
   731   729   732      1
   732   729   733      1
   733   730   731      1
   734   730   734      1
   735   730   735      1
   736   731   736      1
   737   736   737      1
   738   736   739      1
   739   736   740      1
   740   737   738      1
   741   737   741      1
   742   737   742      1
   743   738   743      1
   744   743   744      1
   745   743   746      1
   746   743   747      1
   747   744   745      1
   748   744   748      1
   749   744   749      1
   750   745   750      1
   751   750   751      1
   752   750   753      1
   753   750   754      1
   754   751   752      1
   755   751   755      1
   756   751   756      1
   757   752   757      1
   758   757   758      1
   759   757   760      1
   760   757   761      1
   761   758   759      1
   762   758   762      1
   763   758   763      1
   764   759   764      1
   765   764   765      1
   766   764   767      1
   767   764   768      1
   768   765   766      1
   769   765   769      1
   770   765   770      1
   771   766   771      1
   772   771   772      1
   773   771   774      1
   774   771   775      1
   775   772   773      1
   776   772   776      1
   777   772   777      1
   778   773   778      1
   779   778   779      1
   780   778   781      1
   781   778   782      1
   782   779   780      1
   783   779   783      1
   784   779   784      1
   785   780   785      1
   786   785   786      1
   787   785   788      1
   788   785   789      1
   789   786   787      1
   790   786   790      1
   791   786   791      1
   792   787   792      1
   793   792   793      1
   794   792   795      1
   795   792   796      1
   796   793   794      1
   797   793   797      1
   798   793   798      1
   799   794   799      1
   800   799   800      1
   801   799   802      1
   802   799   803      1
   803   800   801      1
   804   800   804      1
   805   800   805      1
   806   801   806      1
   807   806   807      1
   808   806   809      1
   809   806   810      1
   810   807   808      1
   811   807   811      1
   812   807   812      1
   813   808   813      1
   814   813   814      1
   815   813   816      1
   816   813   817      1
   817   814   815      1
   818   814   818      1
   819   814   819      1
   820   815   820      1
   821   820   821      1
   822   820   823      1
   823   820   824      1
   824   821   822      1
   825   821   825      1
   826   821   826      1
   827   822   827      1
   828   827   828      1
   829   827   830      1
   830   827   831      1
   831   828   829      1
   832   828   832      1
   833   828   833      1
   834   829   834      1
   835   834   835      1
   836   834   837      1
   837   834   838      1
   838   835   836      1
   839   835   839      1
   840   835   840      1
   841   836   841      1
   842   841   842      1
   843   841   844      1
   844   841   845      1
   845   842   843      1
   846   842   846      1
   847   842   847      1
   848   843   848      1
   849   848   849      1
   850   848   851      1
   851   848   852      1
   852   849   850      1
   853   849   853      1
   854   849   854      1
   855   850   855      1
   856   855   856      1
   857   855   858      1
   858   855   859      1
   859   856   857      1
   860   856   860      1
   861   856   861      1
   862   857   862      1
   863   862   863      1
   864   862   865      1
   865   862   866      1
   866   863   864      1
   867   863   867      1
   868   863   868      1
   869   864   869      1
   870   869   870      1
   871   869   872      1
   872   869   873      1
   873   870   871      1
   874   870   874      1
   875   870   875      1
   876   871   876      1
   877   876   877      1
   878   876   879      1
   879   876   880      1
   880   877   878      1
   881   877   881      1
   882   877   882      1
   883   878   883      1
   884   883   884      1
   885   883   886      1
   886   883   887      1
   887   884   885      1
   888   884   888      1
   889   884   889      1
   890   885   890      1
   891   890   891      1
   892   890   893      1
   893   890   894      1
   894   891   892      1
   895   891   895      1
   896   891   896      1
   897   892   897      1
   898   897   898      1
   899   897   900      1
   900   897   901      1
   901   898   899      1
   902   898   902      1
   903   898   903      1
   904   899   904      1
   905   904   905      1
   906   904   907      1
   907   904   908      1
   908   905   906      1
   909   905   909      1
   910   905   910      1
   911   906   911      1
   912   911   912      1
   913   911   914      1
   914   911   915      1
   915   912   913      1
   916   912   916      1
   917   912   917      1
   918   913   918      1
   919   918   919      1
   920   918   921      1
   921   918   922      1
   922   919   920      1
   923   919   923      1
   924   919   924      1
   925   920   925      1
   926   925   926      1
   927   925   928      1
   928   925   929      1
   929   926   927      1
   930   926   930      1
   931   926   931      1
   932   927   932      1
   933   932   933      1
   934   932   935      1
   935   932   936      1
   936   933   934      1
   937   933   937      1
   938   933   938      1
   939   934   939      1
   940   939   940      1
   941   939   942      1
   942   939   943      1
   943   940   941      1
   944   940   944      1
   945   940   945      1
   946   941   946      1
   947   946   947      1
   948   946   949      1
   949   946   950      1
   950   947   948      1
   951   947   951      1
   952   947   952      1
   953   948   953      1
   954   953   954      1
   955   953   956      1
   956   953   957      1
   957   954   955      1
   958   954   958      1
   959   954   959      1
   960   955   960      1
   961   960   961      1
   962   960   963      1
   963   960   964      1
   964   961   962      1
   965   961   965      1
   966   961   966      1
   967   962   967      1
   968   967   968      1
   969   967   970      1
   970   967   971      1
   971   968   969      1
   972   968   972      1
   973   968   973      1
   974   969   974      1
   975   974   975      1
   976   974   977      1
   977   974   978      1
   978   975   976      1
   979   975   979      1
   980   975   980      1
   981   976   981      1
   982   981   982      1
   983   981   984      1
   984   981   985      1
   985   982   983      1
   986   982   986      1
   987   982   987      1
   988   983   988      1
   989   988   989      1
   990   988   991      1
   991   988   992      1
   992   989   990      1
   993   989   993      1
   994   989   994      1
   995   990   995      1
   996   995   996      1
   997   995   998      1
   998   995   999      1
   999   996   997      1
  1000   996  1000      1
  1001   996  1001      1
  1002   997  1002      1
  1003  1002  1003      1
  1004  1002  1005      1
  1005  1002  1006      1
  1006  1003  1004      1
  1007  1003  1007      1
  1008  1003  1008      1
  1009  1004  1009      1
  1010  1009  1010      1
  1011  1009  1012      1
  1012  1009  1013      1
  1013  1010  1011      1
  1014  1010  1014      1
  1015  1010  1015      1
  1016  1011  1016      1
  1017  1016  1017      1
  1018  1016  1019      1
  1019  1016  1020      1
  1020  1017  1018      1
  1021  1017  1021      1
  1022  1017  1022      1
  1023  1018  1023      1
  1024  1023  1024      1
  1025  1023  1026      1
  1026  1023  1027      1
  1027  1024  1025      1
  1028  1024  1028      1
  1029  1024  1029      1
  1030  1025  1030      1
  1031  1030  1031      1
  1032  1030  1033      1
  1033  1030  1034      1
  1034  1031  1032      1
  1035  1031  1035      1
  1036  1031  1036      1
  1037  1032  1037      1
  1038  1037  1038      1
  1039  1037  1040      1
  1040  1037  1041      1
  1041  1038  1039      1
  1042  1038  1042      1
  1043  1038  1043      1
  1044  1039  1044      1
  1045  1044  1045      1
  1046  1044  1047      1
  1047  1044  1048      1
  1048  1045  1046      1
  1049  1045  1049      1
  1050  1045  1050      1
  1051  1046  1051      1
  1052  1051  1052      1
  1053  1051  1054      1
  1054  1051  1055      1
  1055  1052  1053      1
  1056  1052  1056      1
  1057  1052  1057      1
  1058  1053  1058      1
  1059  1058  1059      1
  1060  1058  1061      1
  1061  1058  1062      1
  1062  1059  1060      1
  1063  1059  1063      1
  1064  1059  1064      1
  1065  1060  1065      1
  1066  1065  1066      1
  1067  1065  1068      1
  1068  1065  1069      1
  1069  1066  1067      1
  1070  1066  1070      1
  1071  1066  1071      1
  1072  1067  1072      1
  1073  1072  1073      1
  1074  1072  1075      1
  1075  1072  1076      1
  1076  1073  1074      1
  1077  1073  1077      1
  1078  1073  1078      1
  1079  1074  1079      1
  1080  1079  1080      1
  1081  1079  1082      1
  1082  1079  1083      1
  1083  1080  1081      1
  1084  1080  1084      1
  1085  1080  1085      1
  1086  1081  1086      1
  1087  1086  1087      1
  1088  1086  1089      1
  1089  1086  1090      1
  1090  1087  1088      1
  1091  1087  1091      1
  1092  1087  1092      1
  1093  1088  1093      1
  1094  1093  1094      1
  1095  1093  1096      1
  1096  1093  1097      1
  1097  1094  1095      1
  1098  1094  1098      1
  1099  1094  1099      1
  1100  1095  1100      1
  1101  1100  1101      1
  1102  1100  1103      1
  1103  1100  1104      1
  1104  1101  1102      1
  1105  1101  1105      1
  1106  1101  1106      1
  1107  1102  1107      1
  1108  1107  1108      1
  1109  1107  1110      1
  1110  1107  1111      1
  1111  1108  1109      1
  1112  1108  1112      1
  1113  1108  1113      1
  1114  1109  1114      1
  1115  1114  1115      1
  1116  1114  1117      1
  1117  1114  1118      1
  1118  1115  1116      1
  1119  1115  1119      1
  1120  1115  1120      1
  1121  1116  1121      1
  1122  1121  1122      1
  1123  1121  1124      1
  1124  1121  1125      1
  1125  1122  1123      1
  1126  1122  1126      1
  1127  1122  1127      1
  1128  1123  1128      1
  1129  1128  1129      1
  1130  1128  1131      1
  1131  1128  1132      1
  1132  1129  1130      1
  1133  1129  1133      1
  1134  1129  1134      1
  1135  1130  1135      1
  1136  1135  1136      1
  1137  1135  1138      1
  1138  1135  1139      1
  1139  1136  1137      1
  1140  1136  1140      1
  1141  1136  1141      1
  1142  1137  1142      1
  1143  1142  1143      1
  1144  1142  1145      1
  1145  1142  1146      1
  1146  1143  1144      1
  1147  1143  1147      1
  1148  1143  1148      1
  1149  1144  1149      1
  1150  1149  1150      1
  1151  1149  1152      1
  1152  1149  1153      1
  1153  1150  1151      1
  1154  1150  1154      1
  1155  1150  1155      1
  1156  1151  1156      1
  1157  1156  1157      1
  1158  1156  1159      1
  1159  1156  1160      1
  1160  1157  1158      1
  1161  1157  1161      1
  1162  1157  1162      1
  1163  1158  1163      1
  1164  1163  1164      1
  1165  1163  1166      1
  1166  1163  1167      1
  1167  1164  1165      1
  1168  1164  1168      1
  1169  1164  1169      1
  1170  1165  1170      1
  1171  1170  1171      1
  1172  1170  1173      1
  1173  1170  1174      1
  1174  1171  1172      1
  1175  1171  1175      1
  1176  1171  1176      1
  1177  1172  1177      1
  1178  1177  1178      1
  1179  1177  1180      1
  1180  1177  1181      1
  1181  1178  1179      1
  1182  1178  1182      1
  1183  1178  1183      1
  1184  1179  1184      1
  1185  1184  1185      1
  1186  1184  1187      1
  1187  1184  1188      1
  1188  1185  1186      1
  1189  1185  1189      1
  1190  1185  1190      1
  1191  1186  1191      1
  1192  1191  1192      1
  1193  1191  1194      1
  1194  1191  1195      1
  1195  1192  1193      1
  1196  1192  1196      1
  1197  1192  1197      1
  1198  1193  1198      1
  1199  1198  1199      1
  1200  1198  1201      1
  1201  1198  1202      1
  1202  1199  1200      1
  1203  1199  1203      1
  1204  1199  1204      1
  1205  1200  1205      1
  1206  1205  1206      1
  1207  1205  1208      1
  1208  1205  1209      1
  1209  1206  1207      1
  1210  1206  1210      1
  1211  1206  1211      1
  1212  1207  1212      1
  1213  1212  1213      1
  1214  1212  1215      1
  1215  1212  1216      1
  1216  1213  1214      1
  1217  1213  1217      1
  1218  1213  1218      1
  1219  1214  1219      1
  1220  1219  1220      1
  1221  1219  1222      1
  1222  1219  1223      1
  1223  1220  1221      1
  1224  1220  1224      1
  1225  1220  1225      1
  1226  1221  1226      1
  1227  1226  1227      1
  1228  1226  1229      1
  1229  1226  1230      1
  1230  1227  1228      1
  1231  1227  1231      1
  1232  1227  1232      1
  1233  1228  1233      1
  1234  1233  1234      1
  1235  1233  1236      1
  1236  1233  1237      1
  1237  1234  1235      1
  1238  1234  1238      1
  1239  1234  1239      1
  1240  1235  1240      1
  1241  1240  1241      1
  1242  1240  1243      1
  1243  1240  1244      1
  1244  1241  1242      1
  1245  1241  1245      1
  1246  1241  1246      1
  1247  1242  1247      1
  1248  1247  1248      1
  1249  1247  1250      1
  1250  1247  1251      1
  1251  1248  1249      1
  1252  1248  1252      1
  1253  1248  1253      1
  1254  1249  1254      1
  1255  1254  1255      1
  1256  1254  1257      1
  1257  1254  1258      1
  1258  1255  1256      1
  1259  1255  1259      1
  1260  1255  1260      1
  1261  1256  1261      1
  1262  1261  1262      1
  1263  1261  1264      1
  1264  1261  1265      1
  1265  1262  1263      1
  1266  1262  1266      1
  1267  1262  1267      1
  1268  1263  1268      1
  1269  1268  1269      1
  1270  1268  1271      1
  1271  1268  1272      1
  1272  1269  1270      1
  1273  1269  1273      1
  1274  1269  1274      1
  1275  1270  1275      1
  1276  1275  1276      1
  1277  1275  1278      1
  1278  1275  1279      1
  1279  1276  1277      1
  1280  1276  1280      1
  1281  1276  1281      1
  1282  1277  1282      1
  1283  1282  1283      1
  1284  1282  1285      1
  1285  1282  1286      1
  1286  1283  1284      1
  1287  1283  1287      1
  1288  1283  1288      1
  1289  1284  1289      1
  1290  1289  1290      1
  1291  1289  1292      1
  1292  1289  1293      1
  1293  1290  1291      1
  1294  1290  1294      1
  1295  1290  1295      1
  1296  1291  1296      1
  1297  1296  1297      1
  1298  1296  1299      1
  1299  1296  1300      1
  1300  1297  1298      1
  1301  1297  1301      1
  1302  1297  1302      1
  1303  1298  1303      1
  1304  1303  1304      1
  1305  1303  1306      1
  1306  1303  1307      1
  1307  1304  1305      1
  1308  1304  1308      1
  1309  1304  1309      1
  1310  1305  1310      1
  1311  1310  1311      1
  1312  1310  1313      1
  1313  1310  1314      1
  1314  1311  1312      1
  1315  1311  1315      1
  1316  1311  1316      1
  1317  1312  1317      1
  1318  1317  1318      1
  1319  1317  1320      1
  1320  1317  1321      1
  1321  1318  1319      1
  1322  1318  1322      1
  1323  1318  1323      1
  1324  1319  1324      1
  1325  1324  1325      1
  1326  1324  1327      1
  1327  1324  1328      1
  1328  1325  1326      1
  1329  1325  1329      1
  1330  1325  1330      1
  1331  1326  1331      1
  1332  1331  1332      1
  1333  1331  1334      1
  1334  1331  1335      1
  1335  1332  1333      1
  1336  1332  1336      1
  1337  1332  1337      1
  1338  1333  1338      1
  1339  1338  1339      1
  1340  1338  1341      1
  1341  1338  1342      1
  1342  1339  1340      1
  1343  1339  1343      1
  1344  1339  1344      1
  1345  1340  1345      1
  1346  1345  1346      1
  1347  1345  1348      1
  1348  1345  1349      1
  1349  1346  1347      1
  1350  1346  1350      1
  1351  1346  1351      1
  1352  1347  1352      1
  1353  1352  1353      1
  1354  1352  1355      1
  1355  1352  1356      1
  1356  1353  1354      1
  1357  1353  1357      1
  1358  1353  1358      1
  1359  1354  1359      1
  1360  1359  1360      1
  1361  1359  1362      1
  1362  1359  1363      1
  1363  1360  1361      1
  1364  1360  1364      1
  1365  1360  1365      1
  1366  1361  1366      1
  1367  1366  1367      1
  1368  1366  1369      1
  1369  1366  1370      1
  1370  1367  1368      1
  1371  1367  1371      1
  1372  1367  1372      1
  1373  1368  1373      1
  1374  1373  1374      1
  1375  1373  1376      1
  1376  1373  1377      1
  1377  1374  1375      1
  1378  1374  1378      1
  1379  1374  1379      1
  1380  1375  1380      1
  1381  1380  1381      1
  1382  1380  1383      1
  1383  1380  1384      1
  1384  1381  1382      1
  1385  1381  1385      1
  1386  1381  1386      1
  1387  1382  1387      1
  1388  1387  1388      1
  1389  1387  1390      1
  1390  1387  1391      1
  1391  1388  1389      1
  1392  1388  1392      1
  1393  1388  1393      1
  1394  1389  1394      1
  1395  1394  1395      1
  1396  1394  1397      1
  1397  1394  1398      1
  1398  1395  1396      1
  1399  1395  1399      1
  1400  1395  1400      1
  1401  1396  1401      1
  1402  1401  1402      1
  1403  1401  1404      1
  1404  1401  1405      1
  1405  1402  1403      1
  1406  1402  1406      1
  1407  1402  1407      1
  1408  1403  1408      1
  1409  1408  1409      1
  1410  1408  1411      1
  1411  1408  1412      1
  1412  1409  1410      1
  1413  1409  1413      1
  1414  1409  1414      1
  1415  1410  1415      1
  1416  1415  1416      1
  1417  1415  1418      1
  1418  1415  1419      1
  1419  1416  1417      1
  1420  1416  1420      1
  1421  1416  1421      1
  1422  1417  1422      1
  1423  1422  1423      1
  1424  1422  1425      1
  1425  1422  1426      1
  1426  1423  1424      1
  1427  1423  1427      1
  1428  1423  1428      1
  1429  1424  1429      1
  1430  1429  1430      1
  1431  1429  1432      1
  1432  1429  1433      1
  1433  1430  1431      1
  1434  1430  1434      1
  1435  1430  1435      1
  1436  1431  1436      1
  1437  1436  1437      1
  1438  1436  1439      1
  1439  1436  1440      1
  1440  1437  1438      1
  1441  1437  1441      1
  1442  1437  1442      1
  1443  1438  1443      1
  1444  1443  1444      1
  1445  1443  1446      1
  1446  1443  1447      1
  1447  1444  1445      1
  1448  1444  1448      1
  1449  1444  1449      1
  1450  1445  1450      1
  1451  1450  1451      1
  1452  1450  1453      1
  1453  1450  1454      1
  1454  1451  1452      1
  1455  1451  1455      1
  1456  1451  1456      1
  1457  1452  1457      1
  1458  1457  1458      1
  1459  1457  1460      1
  1460  1457  1461      1
  1461  1458  1459      1
  1462  1458  1462      1
  1463  1458  1463      1
  1464  1459  1464      1
  1465  1464  1465      1
  1466  1464  1467      1
  1467  1464  1468      1
  1468  1465  1466      1
  1469  1465  1469      1
  1470  1465  1470      1
  1471  1466  1471      1
  1472  1471  1472      1
  1473  1471  1474      1
  1474  1471  1475      1
  1475  1472  1473      1
  1476  1472  1476      1
  1477  1472  1477      1
  1478  1473  1478      1
  1479  1478  1479      1
  1480  1478  1481      1
  1481  1478  1482      1
  1482  1479  1480      1
  1483  1479  1483      1
  1484  1479  1484      1
  1485  1480  1485      1
  1486  1485  1486      1
  1487  1485  1488      1
  1488  1485  1489      1
  1489  1486  1487      1
  1490  1486  1490      1
  1491  1486  1491      1
  1492  1487  1492      1
  1493  1492  1493      1
  1494  1492  1495      1
  1495  1492  1496      1
  1496  1493  1494      1
  1497  1493  1497      1
  1498  1493  1498      1
  1499  1494  1499      1
  1500  1499  1500      1
  1501  1499  1502      1
  1502  1499  1503      1
  1503  1500  1501      1
  1504  1500  1504      1
  1505  1500  1505      1
  1506  1501  1506      1
  1507  1506  1507      1
  1508  1506  1509      1
  1509  1506  1510      1
  1510  1507  1508      1
  1511  1507  1511      1
  1512  1507  1512      1
  1513  1508  1513      1
  1514  1513  1514      1
  1515  1513  1516      1
  1516  1513  1517      1
  1517  1514  1515      1
  1518  1514  1518      1
  1519  1514  1519      1
  1520  1515  1520      1
  1521  1520  1521      1
  1522  1520  1523      1
  1523  1520  1524      1
  1524  1521  1522      1
  1525  1521  1525      1
  1526  1521  1526      1
  1527  1522  1527      1
  1528  1527  1528      1
  1529  1527  1530      1
  1530  1527  1531      1
  1531  1528  1529      1
  1532  1528  1532      1
  1533  1528  1533      1
  1534  1529  1534      1
  1535  1534  1535      1
  1536  1534  1537      1
  1537  1534  1538      1
  1538  1535  1536      1
  1539  1535  1539      1
  1540  1535  1540      1
  1541  1536  1541      1
  1542  1541  1542      1
  1543  1541  1544      1
  1544  1541  1545      1
  1545  1542  1543      1
  1546  1542  1546      1
  1547  1542  1547      1
  1548  1543  1548      1
  1549  1548  1549      1
  1550  1548  1551      1
  1551  1548  1552      1
  1552  1549  1550      1
  1553  1549  1553      1
  1554  1549  1554      1
  1555  1550  1555      1
  1556  1555  1556      1
  1557  1555  1558      1
  1558  1555  1559      1
  1559  1556  1557      1
  1560  1556  1560      1
  1561  1556  1561      1
  1562  1557  1562      1
  1563  1562  1563      1
  1564  1562  1565      1
  1565  1562  1566      1
  1566  1563  1564      1
  1567  1563  1567      1
  1568  1563  1568      1
  1569  1564  1569      1
  1570  1569  1570      1
  1571  1569  1572      1
  1572  1569  1573      1
  1573  1570  1571      1
  1574  1570  1574      1
  1575  1570  1575      1
  1576  1571  1576      1
  1577  1576  1577      1
  1578  1576  1579      1
  1579  1576  1580      1
  1580  1577  1578      1
  1581  1577  1581      1
  1582  1577  1582      1
  1583  1578  1583      1
  1584  1583  1584      1
  1585  1583  1586      1
  1586  1583  1587      1
  1587  1584  1585      1
  1588  1584  1588      1
  1589  1584  1589      1
  1590  1585  1590      1
  1591  1590  1591      1
  1592  1590  1593      1
  1593  1590  1594      1
  1594  1591  1592      1
  1595  1591  1595      1
  1596  1591  1596      1
  1597  1592  1597      1
  1598  1597  1598      1
  1599  1597  1600      1
  1600  1597  1601      1
  1601  1598  1599      1
  1602  1598  1602      1
  1603  1598  1603      1
  1604  1599  1604      1
  1605  1604  1605      1
  1606  1604  1607      1
  1607  1604  1608      1
  1608  1605  1606      1
  1609  1605  1609      1
  1610  1605  1610      1
  1611  1606  1611      1
  1612  1611  1612      1
  1613  1611  1614      1
  1614  1611  1615      1
  1615  1612  1613      1
  1616  1612  1616      1
  1617  1612  1617      1
  1618  1613  1618      1
  1619  1618  1619      1
  1620  1618  1621      1
  1621  1618  1622      1
  1622  1619  1620      1
  1623  1619  1623      1
  1624  1619  1624      1
  1625  1620  1625      1
  1626  1625  1626      1
  1627  1625  1628      1
  1628  1625  1629      1
  1629  1626  1627      1
  1630  1626  1630      1
  1631  1626  1631      1
  1632  1627  1632      1
  1633  1632  1633      1
  1634  1632  1635      1
  1635  1632  1636      1
  1636  1633  1634      1
  1637  1633  1637      1
  1638  1633  1638      1
  1639  1634  1639      1
  1640  1639  1640      1
  1641  1639  1642      1
  1642  1639  1643      1
  1643  1640  1641      1
  1644  1640  1644      1
  1645  1640  1645      1
  1646  1641  1646      1
  1647  1646  1647      1
  1648  1646  1649      1
  1649  1646  1650      1
  1650  1647  1648      1
  1651  1647  1651      1
  1652  1647  1652      1
  1653  1648  1653      1
  1654  1653  1654      1
  1655  1653  1656      1
  1656  1653  1657      1
  1657  1654  1655      1
  1658  1654  1658      1
  1659  1654  1659      1
  1660  1655  1660      1
  1661  1660  1661      1
  1662  1660  1663      1
  1663  1660  1664      1
  1664  1661  1662      1
  1665  1661  1665      1
  1666  1661  1666      1
  1667  1662  1667      1
  1668  1667  1668      1
  1669  1667  1670      1
  1670  1667  1671      1
  1671  1668  1669      1
  1672  1668  1672      1
  1673  1668  1673      1
  1674  1669  1674      1
  1675  1674  1675      1
  1676  1674  1677      1
  1677  1674  1678      1
  1678  1675  1676      1
  1679  1675  1679      1
  1680  1675  1680      1
  1681  1676  1681      1
  1682  1681  1682      1
  1683  1681  1684      1
  1684  1681  1685      1
  1685  1682  1683      1
  1686  1682  1686      1
  1687  1682  1687      1
  1688  1683  1688      1
  1689  1688  1689      1
  1690  1688  1691      1
  1691  1688  1692      1
  1692  1689  1690      1
  1693  1689  1693      1
  1694  1689  1694      1
  1695  1690  1695      1
  1696  1695  1696      1
  1697  1695  1698      1
  1698  1695  1699      1
  1699  1696  1697      1
  1700  1696  1700      1
  1701  1696  1701      1
  1702  1697  1702      1
  1703  1702  1703      1
  1704  1702  1705      1
  1705  1702  1706      1
  1706  1703  1704      1
  1707  1703  1707      1
  1708  1703  1708      1
  1709  1704  1709      1
  1710  1709  1710      1
  1711  1709  1712      1
  1712  1709  1713      1
  1713  1710  1711      1
  1714  1710  1714      1
  1715  1710  1715      1
  1716  1711  1716      1
  1717  1716  1717      1
  1718  1716  1719      1
  1719  1716  1720      1
  1720  1717  1718      1
  1721  1717  1721      1
  1722  1717  1722      1
  1723  1718  1723      1
  1724  1723  1724      1
  1725  1723  1726      1
  1726  1723  1727      1
  1727  1724  1725      1
  1728  1724  1728      1
  1729  1724  1729      1
  1730  1725  1730      1
  1731  1730  1731      1
  1732  1730  1733      1
  1733  1730  1734      1
  1734  1731  1732      1
  1735  1731  1735      1
  1736  1731  1736      1
  1737  1732  1737      1
  1738  1737  1738      1
  1739  1737  1740      1
  1740  1737  1741      1
  1741  1738  1739      1
  1742  1738  1742      1
  1743  1738  1743      1
  1744  1739  1744      1
  1745  1744  1745      1
  1746  1744  1747      1
  1747  1744  1748      1
  1748  1745  1746      1
  1749  1745  1749      1
  1750  1745  1750      1
  1751  1746  1751      1
  1752  1751  1752      1
  1753  1751  1754      1
  1754  1751  1755      1
  1755  1752  1753      1
  1756  1752  1756      1
  1757  1752  1757      1
  1758  1753  1758      1
  1759  1758  1759      1
  1760  1758  1761      1
  1761  1758  1762      1
  1762  1759  1760      1
  1763  1759  1763      1
  1764  1759  1764      1
  1765  1760  1765      1
  1766  1765  1766      1
  1767  1765  1768      1
  1768  1765  1769      1
  1769  1766  1767      1
  1770  1766  1770      1
  1771  1766  1771      1
  1772  1767  1772      1
  1773  1772  1773      1
  1774  1772  1775      1
  1775  1772  1776      1
  1776  1773  1774      1
  1777  1773  1777      1
  1778  1773  1778      1
  1779  1774  1779      1
  1780  1779  1780      1
  1781  1779  1782      1
  1782  1779  1783      1
  1783  1780  1781      1
  1784  1780  1784      1
  1785  1780  1785      1
  1786  1781  1786      1
  1787  1786  1787      1
  1788  1786  1789      1
  1789  1786  1790      1
  1790  1787  1788      1
  1791  1787  1791      1
  1792  1787  1792      1
  1793  1788  1793      1
  1794  1793  1794      1
  1795  1793  1796      1
  1796  1793  1797      1
  1797  1794  1795      1
  1798  1794  1798      1
  1799  1794  1799      1
  1800  1795  1800      1
  1801  1800  1801      1
  1802  1800  1803      1
  1803  1800  1804      1
  1804  1801  1802      1
  1805  1801  1805      1
  1806  1801  1806      1
  1807  1802  1807      1
  1808  1807  1808      1
  1809  1807  1810      1
  1810  1807  1811      1
  1811  1808  1809      1
  1812  1808  1812      1
  1813  1808  1813      1
  1814  1809  1814      1
  1815  1814  1815      1
  1816  1814  1817      1
  1817  1814  1818      1
  1818  1815  1816      1
  1819  1815  1819      1
  1820  1815  1820      1
  1821  1816  1821      1
  1822  1821  1822      1
  1823  1821  1824      1
  1824  1821  1825      1
  1825  1822  1823      1
  1826  1822  1826      1
  1827  1822  1827      1
  1828  1823  1828      1
  1829  1828  1829      1
  1830  1828  1831      1
  1831  1828  1832      1
  1832  1829  1830      1
  1833  1829  1833      1
  1834  1829  1834      1
  1835  1830  1835      1
  1836  1835  1836      1
  1837  1835  1838      1
  1838  1835  1839      1
  1839  1836  1837      1
  1840  1836  1840      1
  1841  1836  1841      1
  1842  1837  1842      1
  1843  1842  1843      1
  1844  1842  1845      1
  1845  1842  1846      1
  1846  1843  1844      1
  1847  1843  1847      1
  1848  1843  1848      1
  1849  1844  1849      1
  1850  1849  1850      1
  1851  1849  1852      1
  1852  1849  1853      1
  1853  1850  1851      1
  1854  1850  1854      1
  1855  1850  1855      1
  1856  1851  1856      1
  1857  1856  1857      1
  1858  1856  1859      1
  1859  1856  1860      1
  1860  1857  1858      1
  1861  1857  1861      1
  1862  1857  1862      1
  1863  1858  1863      1
  1864  1863  1864      1
  1865  1863  1866      1
  1866  1863  1867      1
  1867  1864  1865      1
  1868  1864  1868      1
  1869  1864  1869      1
  1870  1865  1870      1
  1871  1870  1871      1
  1872  1870  1873      1
  1873  1870  1874      1
  1874  1871  1872      1
  1875  1871  1875      1
  1876  1871  1876      1
  1877  1872  1877      1
  1878  1877  1878      1
  1879  1877  1880      1
  1880  1877  1881      1
  1881  1878  1879      1
  1882  1878  1882      1
  1883  1878  1883      1
  1884  1879  1884      1
  1885  1884  1885      1
  1886  1884  1887      1
  1887  1884  1888      1
  1888  1885  1886      1
  1889  1885  1889      1
  1890  1885  1890      1
  1891  1886  1891      1
  1892  1891  1892      1
  1893  1891  1894      1
  1894  1891  1895      1
  1895  1892  1893      1
  1896  1892  1896      1
  1897  1892  1897      1
  1898  1893  1898      1
  1899  1898  1899      1
  1900  1898  1901      1
  1901  1898  1902      1
  1902  1899  1900      1
  1903  1899  1903      1
  1904  1899  1904      1
  1905  1900  1905      1
  1906  1905  1906      1
  1907  1905  1908      1
  1908  1905  1909      1
  1909  1906  1907      1
  1910  1906  1910      1
  1911  1906  1911      1
  1912  1907  1912      1
  1913  1912  1913      1
  1914  1912  1915      1
  1915  1912  1916      1
  1916  1913  1914      1
  1917  1913  1917      1
  1918  1913  1918      1
  1919  1914  1919      1
  1920  1919  1920      1
  1921  1919  1922      1
  1922  1919  1923      1
  1923  1920  1921      1
  1924  1920  1924      1
  1925  1920  1925      1
  1926  1921  1926      1
  1927  1926  1927      1
  1928  1926  1929      1
  1929  1926  1930      1
  1930  1927  1928      1
  1931  1927  1931      1
  1932  1927  1932      1
  1933  1928  1933      1
  1934  1933  1934      1
  1935  1933  1936      1
  1936  1933  1937      1
  1937  1934  1935      1
  1938  1934  1938      1
  1939  1934  1939      1
  1940  1935  1940      1
  1941  1940  1941      1
  1942  1940  1943      1
  1943  1940  1944      1
  1944  1941  1942      1
  1945  1941  1945      1
  1946  1941  1946      1
  1947  1942  1947      1
  1948  1947  1948      1
  1949  1947  1950      1
  1950  1947  1951      1
  1951  1948  1949      1
  1952  1948  1952      1
  1953  1948  1953      1
  1954  1949  1954      1
  1955  1954  1955      1
  1956  1954  1957      1
  1957  1954  1958      1
  1958  1955  1956      1
  1959  1955  1959      1
  1960  1955  1960      1
  1961  1956  1961      1
  1962  1961  1962      1
  1963  1961  1964      1
  1964  1961  1965      1
  1965  1962  1963      1
  1966  1962  1966      1
  1967  1962  1967      1
  1968  1963  1968      1
  1969  1968  1969      1
  1970  1968  1971      1
  1971  1968  1972      1
  1972  1969  1970      1
  1973  1969  1973      1
  1974  1969  1974      1
  1975  1970  1975      1
  1976  1975  1976      1
  1977  1975  1978      1
  1978  1975  1979      1
  1979  1976  1977      1
  1980  1976  1980      1
  1981  1976  1981      1
  1982  1977  1982      1
  1983  1982  1983      1
  1984  1982  1985      1
  1985  1982  1986      1
  1986  1983  1984      1
  1987  1983  1987      1
  1988  1983  1988      1
  1989  1984  1989      1
  1990  1989  1990      1
  1991  1989  1992      1
  1992  1989  1993      1
  1993  1990  1991      1
  1994  1990  1994      1
  1995  1990  1995      1
  1996  1991  1996      1
  1997  1996  1997      1
  1998  1996  1999      1
  1999  1996  2000      1
  2000  1997  1998      1
  2001  1997  2001      1
  2002  1997  2002      1
  2003  1998  2003      1
  2004  2003  2004      1
  2005  2003  2006      1
  2006  2003  2007      1
  2007  2004  2005      1
  2008  2004  2008      1
  2009  2004  2009      1
  2010  2005  2010      1
  2011  2010  2011      1
  2012  2010  2013      1
  2013  2010  2014      1
  2014  2011  2012      1
  2015  2011  2015      1
  2016  2011  2016      1
  2017  2012  2017      1
  2018  2017  2018      1
  2019  2017  2020      1
  2020  2017  2021      1
  2021  2018  2019      1
  2022  2018  2022      1
  2023  2018  2023      1
  2024  2019  2024      1
  2025  2024  2025      1
  2026  2024  2027      1
  2027  2024  2028      1
  2028  2025  2026      1
  2029  2025  2029      1
  2030  2025  2030      1
  2031  2026  2031      1
  2032  2031  2032      1
  2033  2031  2034      1
  2034  2031  2035      1
  2035  2032  2033      1
  2036  2032  2036      1
  2037  2032  2037      1
  2038  2033  2038      1
  2039  2038  2039      1
  2040  2038  2041      1
  2041  2038  2042      1
  2042  2039  2040      1
  2043  2039  2043      1
  2044  2039  2044      1
  2045  2040  2045      1
  2046  2045  2046      1
  2047  2045  2048      1
  2048  2045  2049      1
  2049  2046  2047      1
  2050  2046  2050      1
  2051  2046  2051      1
  2052  2047  2052      1
  2053  2052  2053      1
  2054  2052  2055      1
  2055  2052  2056      1
  2056  2053  2054      1
  2057  2053  2057      1
  2058  2053  2058      1
  2059  2054  2059      1
  2060  2059  2060      1
  2061  2059  2062      1
  2062  2059  2063      1
  2063  2060  2061      1
  2064  2060  2064      1
  2065  2060  2065      1
  2066  2061  2066      1
  2067  2066  2067      1
  2068  2066  2069      1
  2069  2066  2070      1
  2070  2067  2068      1
  2071  2067  2071      1
  2072  2067  2072      1
  2073  2068  2073      1
  2074  2073  2074      1
  2075  2073  2076      1
  2076  2073  2077      1
  2077  2074  2075      1
  2078  2074  2078      1
  2079  2074  2079      1
  2080  2075  2080      1
  2081  2080  2081      1
  2082  2080  2083      1
  2083  2080  2084      1
  2084  2081  2082      1
  2085  2081  2085      1
  2086  2081  2086      1
  2087  2082  2087      1
  2088  2087  2088      1
  2089  2087  2090      1
  2090  2087  2091      1
  2091  2088  2089      1
  2092  2088  2092      1
  2093  2088  2093      1
  2094  2089  2094      1
  2095  2094  2095      1
  2096  2094  2097      1
  2097  2094  2098      1
  2098  2095  2096      1
  2099  2095  2099      1
  2100  2095  2100      1
  2101  2096  2101      1
  2102  2101  2102      1
  2103  2101  2104      1
  2104  2101  2105      1
  2105  2102  2103      1
  2106  2102  2106      1
  2107  2102  2107      1
  2108  2103  2108      1
  2109  2108  2109      1
  2110  2108  2111      1
  2111  2108  2112      1
  2112  2109  2110      1
  2113  2109  2113      1
  2114  2109  2114      1
  2115  2110  2115      1
  2116  2115  2116      1
  2117  2115  2118      1
  2118  2115  2119      1
  2119  2116  2117      1
  2120  2116  2120      1
  2121  2116  2121      1
  2122  2117  2122      1
  2123  2122  2123      1
  2124  2122  2125      1
  2125  2122  2126      1
  2126  2123  2124      1
  2127  2123  2127      1
  2128  2123  2128      1
  2129  2124  2129      1
  2130  2129  2130      1
  2131  2129  2132      1
  2132  2129  2133      1
  2133  2130  2131      1
  2134  2130  2134      1
  2135  2130  2135      1
  2136  2131  2136      1
  2137  2136  2137      1
  2138  2136  2139      1
  2139  2136  2140      1
  2140  2137  2138      1
  2141  2137  2141      1
  2142  2137  2142      1
  2143  2138  2143      1
  2144  2143  2144      1
  2145  2143  2146      1
  2146  2143  2147      1
  2147  2144  2145      1
  2148  2144  2148      1
  2149  2144  2149      1
  2150  2145  2150      1
  2151  2150  2151      1
  2152  2150  2153      1
  2153  2150  2154      1
  2154  2151  2152      1
  2155  2151  2155      1
  2156  2151  2156      1
  2157  2152  2157      1
  2158  2157  2158      1
  2159  2157  2160      1
  2160  2157  2161      1
  2161  2158  2159      1
  2162  2158  2162      1
  2163  2158  2163      1
  2164  2159  2164      1
  2165  2164  2165      1
  2166  2164  2167      1
  2167  2164  2168      1
  2168  2165  2166      1
  2169  2165  2169      1
  2170  2165  2170      1
  2171  2166  2171      1
  2172  2171  2172      1
  2173  2171  2174      1
  2174  2171  2175      1
  2175  2172  2173      1
  2176  2172  2176      1
  2177  2172  2177      1
  2178  2173  2178      1
  2179  2178  2179      1
  2180  2178  2181      1
  2181  2178  2182      1
  2182  2179  2180      1
  2183  2179  2183      1
  2184  2179  2184      1
  2185  2180  2185      1
  2186  2185  2186      1
  2187  2185  2188      1
  2188  2185  2189      1
  2189  2186  2187      1
  2190  2186  2190      1
  2191  2186  2191      1
  2192  2187  2192      1
  2193  2192  2193      1
  2194  2192  2195      1
  2195  2192  2196      1
  2196  2193  2194      1
  2197  2193  2197      1
  2198  2193  2198      1
  2199  2194  2199      1
  2200  2199  2200      1
  2201  2199  2202      1
  2202  2199  2203      1
  2203  2200  2201      1
  2204  2200  2204      1
  2205  2200  2205      1
  2206  2201  2206      1
  2207  2206  2207      1
  2208  2206  2209      1
  2209  2206  2210      1
  2210  2207  2208      1
  2211  2207  2211      1
  2212  2207  2212      1
  2213  2208  2213      1
  2214  2213  2214      1
  2215  2213  2216      1
  2216  2213  2217      1
  2217  2214  2215      1
  2218  2214  2218      1
  2219  2214  2219      1
  2220  2215  2220      1
  2221  2220  2221      1
  2222  2220  2223      1
  2223  2220  2224      1
  2224  2221  2222      1
  2225  2221  2225      1
  2226  2221  2226      1
  2227  2222  2227      1
  2228  2227  2228      1
  2229  2227  2230      1
  2230  2227  2231      1
  2231  2228  2229      1
  2232  2228  2232      1
  2233  2228  2233      1
  2234  2229  2234      1
  2235  2234  2235      1
  2236  2234  2237      1
  2237  2234  2238      1
  2238  2235  2236      1
  2239  2235  2239      1
  2240  2235  2240      1
  2241  2236  2241      1
  2242  2241  2242      1
  2243  2241  2244      1
  2244  2241  2245      1
  2245  2242  2243      1
  2246  2242  2246      1
  2247  2242  2247      1
  2248  2243  2248      1
  2249  2248  2249      1
  2250  2248  2251      1
  2251  2248  2252      1
  2252  2249  2250      1
  2253  2249  2253      1
  2254  2249  2254      1
  2255  2250  2255      1
  2256  2255  2256      1
  2257  2255  2258      1
  2258  2255  2259      1
  2259  2256  2257      1
  2260  2256  2260      1
  2261  2256  2261      1
  2262  2257  2262      1
  2263  2262  2263      1
  2264  2262  2265      1
  2265  2262  2266      1
  2266  2263  2264      1
  2267  2263  2267      1
  2268  2263  2268      1
  2269  2264  2269      1
  2270  2269  2270      1
  2271  2269  2272      1
  2272  2269  2273      1
  2273  2270  2271      1
  2274  2270  2274      1
  2275  2270  2275      1
  2276  2271  2276      1
  2277  2276  2277      1
  2278  2276  2279      1
  2279  2276  2280      1
  2280  2277  2278      1
  2281  2277  2281      1
  2282  2277  2282      1
  2283  2278  2283      1
  2284  2283  2284      1
  2285  2283  2286      1
  2286  2283  2287      1
  2287  2284  2285      1
  2288  2284  2288      1
  2289  2284  2289      1
  2290  2285  2290      1
  2291  2290  2291      1
  2292  2290  2293      1
  2293  2290  2294      1
  2294  2291  2292      1
  2295  2291  2295      1
  2296  2291  2296      1
  2297  2292  2297      1
  2298  2297  2298      1
  2299  2297  2300      1
  2300  2297  2301      1
  2301  2298  2299      1
  2302  2298  2302      1
  2303  2298  2303      1
  2304  2299  2304      1
  2305  2304  2305      1
  2306  2304  2307      1
  2307  2304  2308      1
  2308  2305  2306      1
  2309  2305  2309      1
  2310  2305  2310      1
  2311  2306  2311      1
  2312  2311  2312      1
  2313  2311  2314      1
  2314  2311  2315      1
  2315  2312  2313      1
  2316  2312  2316      1
  2317  2312  2317      1
  2318  2313  2318      1
  2319  2318  2319      1
  2320  2318  2321      1
  2321  2318  2322      1
  2322  2319  2320      1
  2323  2319  2323      1
  2324  2319  2324      1
  2325  2320  2325      1
  2326  2325  2326      1
  2327  2325  2328      1
  2328  2325  2329      1
  2329  2326  2327      1
  2330  2326  2330      1
  2331  2326  2331      1
  2332  2327  2332      1
  2333  2332  2333      1
  2334  2332  2335      1
  2335  2332  2336      1
  2336  2333  2334      1
  2337  2333  2337      1
  2338  2333  2338      1
  2339  2334  2339      1
  2340  2339  2340      1
  2341  2339  2342      1
  2342  2339  2343      1
  2343  2340  2341      1
  2344  2340  2344      1
  2345  2340  2345      1
  2346  2341  2346      1
  2347  2346  2347      1
  2348  2346  2349      1
  2349  2346  2350      1
  2350  2347  2348      1
  2351  2347  2351      1
  2352  2347  2352      1
  2353  2348  2353      1
  2354  2353  2354      1
  2355  2353  2356      1
  2356  2353  2357      1
  2357  2354  2355      1
  2358  2354  2358      1
  2359  2354  2359      1
  2360  2355  2360      1
  2361  2360  2361      1
  2362  2360  2363      1
  2363  2360  2364      1
  2364  2361  2362      1
  2365  2361  2365      1
  2366  2361  2366      1
  2367  2362  2367      1
  2368  2367  2368      1
  2369  2367  2370      1
  2370  2367  2371      1
  2371  2368  2369      1
  2372  2368  2372      1
  2373  2368  2373      1
  2374  2369  2374      1
  2375  2374  2375      1
  2376  2374  2377      1
  2377  2374  2378      1
  2378  2375  2376      1
  2379  2375  2379      1
  2380  2375  2380      1
  2381  2376  2381      1
  2382  2381  2382      1
  2383  2381  2384      1
  2384  2381  2385      1
  2385  2382  2383      1
  2386  2382  2386      1
  2387  2382  2387      1
  2388  2383  2388      1
  2389  2388  2389      1
  2390  2388  2391      1
  2391  2388  2392      1
  2392  2389  2390      1
  2393  2389  2393      1
  2394  2389  2394      1
  2395  2390  2395      1
  2396  2395  2396      1
  2397  2395  2398      1
  2398  2395  2399      1
  2399  2396  2397      1
  2400  2396  2400      1
  2401  2396  2401      1
  2402  2397  2402      1
  2403  2402  2403      1
  2404  2402  2405      1
  2405  2402  2406      1
  2406  2403  2404      1
  2407  2403  2407      1
  2408  2403  2408      1
  2409  2404  2409      1
  2410  2409  2410      1
  2411  2409  2412      1
  2412  2409  2413      1
  2413  2410  2411      1
  2414  2410  2414      1
  2415  2410  2415      1
  2416  2411  2416      1
  2417  2416  2417      1
  2418  2416  2419      1
  2419  2416  2420      1
  2420  2417  2418      1
  2421  2417  2421      1
  2422  2417  2422      1
  2423  2418  2423      1
  2424  2423  2424      1
  2425  2423  2426      1
  2426  2423  2427      1
  2427  2424  2425      1
  2428  2424  2428      1
  2429  2424  2429      1
  2430  2425  2430      1
  2431  2430  2431      1
  2432  2430  2433      1
  2433  2430  2434      1
  2434  2431  2432      1
  2435  2431  2435      1
  2436  2431  2436      1
  2437  2432  2437      1
  2438  2437  2438      1
  2439  2437  2440      1
  2440  2437  2441      1
  2441  2438  2439      1
  2442  2438  2442      1
  2443  2438  2443      1
  2444  2439  2444      1
  2445  2444  2445      1
  2446  2444  2447      1
  2447  2444  2448      1
  2448  2445  2446      1
  2449  2445  2449      1
  2450  2445  2450      1
  2451  2446  2451      1
  2452  2451  2452      1
  2453  2451  2454      1
  2454  2451  2455      1
  2455  2452  2453      1
  2456  2452  2456      1
  2457  2452  2457      1
  2458  2453  2458      1
  2459  2458  2459      1
  2460  2458  2461      1
  2461  2458  2462      1
  2462  2459  2460      1
  2463  2459  2463      1
  2464  2459  2464      1
  2465  2460  2465      1
  2466  2465  2466      1
  2467  2465  2468      1
  2468  2465  2469      1
  2469  2466  2467      1
  2470  2466  2470      1
  2471  2466  2471      1
  2472  2467  2472      1
  2473  2472  2473      1
  2474  2472  2475      1
  2475  2472  2476      1
  2476  2473  2474      1
  2477  2473  2477      1
  2478  2473  2478      1
  2479  2474  2479      1
  2480  2479  2480      1
  2481  2479  2482      1
  2482  2479  2483      1
  2483  2480  2481      1
  2484  2480  2484      1
  2485  2480  2485      1
  2486  2481  2486      1
  2487  2486  2487      1
  2488  2486  2489      1
  2489  2486  2490      1
  2490  2487  2488      1
  2491  2487  2491      1
  2492  2487  2492      1
  2493  2488  2493      1
  2494  2493  2494      1
  2495  2493  2496      1
  2496  2493  2497      1
  2497  2494  2495      1
  2498  2494  2498      1
  2499  2494  2499      1
  2500  2495  2500      1
  2501  2500  2501      1
  2502  2500  2503      1
  2503  2500  2504      1
  2504  2501  2502      1
  2505  2501  2505      1
  2506  2501  2506      1
  2507  2502  2507      1
  2508  2507  2508      1
  2509  2507  2510      1
  2510  2507  2511      1
  2511  2508  2509      1
  2512  2508  2512      1
  2513  2508  2513      1
  2514  2509  2514      1
  2515  2514  2515      1
  2516  2514  2517      1
  2517  2514  2518      1
  2518  2515  2516      1
  2519  2515  2519      1
  2520  2515  2520      1
  2521  2516  2521      1
  2522  2521  2522      1
  2523  2521  2524      1
  2524  2521  2525      1
  2525  2522  2523      1
  2526  2522  2526      1
  2527  2522  2527      1
  2528  2523  2528      1
  2529  2528  2529      1
  2530  2528  2531      1
  2531  2528  2532      1
  2532  2529  2530      1
  2533  2529  2533      1
  2534  2529  2534      1
  2535  2530  2535      1
  2536  2535  2536      1
  2537  2535  2538      1
  2538  2535  2539      1
  2539  2536  2537      1
  2540  2536  2540      1
  2541  2536  2541      1
  2542  2537  2542      1
  2543  2542  2543      1
  2544  2542  2545      1
  2545  2542  2546      1
  2546  2543  2544      1
  2547  2543  2547      1
  2548  2543  2548      1
  2549  2544  2549      1
  2550  2549  2550      1
  2551  2549  2552      1
  2552  2549  2553      1
  2553  2550  2551      1
  2554  2550  2554      1
  2555  2550  2555      1
  2556  2551  2556      1
  2557  2556  2557      1
  2558  2556  2559      1
  2559  2556  2560      1
  2560  2557  2558      1
  2561  2557  2561      1
  2562  2557  2562      1
  2563  2558  2563      1
  2564  2563  2564      1
  2565  2563  2566      1
  2566  2563  2567      1
  2567  2564  2565      1
  2568  2564  2568      1
  2569  2564  2569      1
  2570  2565  2570      1
  2571  2570  2571      1
  2572  2570  2573      1
  2573  2570  2574      1
  2574  2571  2572      1
  2575  2571  2575      1
  2576  2571  2576      1
  2577  2572  2577      1
  2578  2577  2578      1
  2579  2577  2580      1
  2580  2577  2581      1
  2581  2578  2579      1
  2582  2578  2582      1
  2583  2578  2583      1
  2584  2579  2584      1
  2585  2584  2585      1
  2586  2584  2587      1
  2587  2584  2588      1
  2588  2585  2586      1
  2589  2585  2589      1
  2590  2585  2590      1
  2591  2586  2591      1
  2592  2591  2592      1
  2593  2591  2594      1
  2594  2591  2595      1
  2595  2592  2593      1
  2596  2592  2596      1
  2597  2592  2597      1
  2598  2593  2598      1
  2599  2598  2599      1
  2600  2598  2601      1
  2601  2598  2602      1
  2602  2599  2600      1
  2603  2599  2603      1
  2604  2599  2604      1
  2605  2600  2605      1
  2606  2605  2606      1
  2607  2605  2608      1
  2608  2605  2609      1
  2609  2606  2607      1
  2610  2606  2610      1
  2611  2606  2611      1
  2612  2607  2612      1
  2613  2612  2613      1
  2614  2612  2615      1
  2615  2612  2616      1
  2616  2613  2614      1
  2617  2613  2617      1
  2618  2613  2618      1
  2619  2614  2619      1
  2620  2619  2620      1
  2621  2619  2622      1
  2622  2619  2623      1
  2623  2620  2621      1
  2624  2620  2624      1
  2625  2620  2625      1
  2626  2621  2626      1
  2627  2626  2627      1
  2628  2626  2629      1
  2629  2626  2630      1
  2630  2627  2628      1
  2631  2627  2631      1
  2632  2627  2632      1
  2633  2628  2633      1
  2634  2633  2634      1
  2635  2633  2636      1
  2636  2633  2637      1
  2637  2634  2635      1
  2638  2634  2638      1
  2639  2634  2639      1
  2640  2635  2640      1
  2641  2640  2641      1
  2642  2640  2643      1
  2643  2640  2644      1
  2644  2641  2642      1
  2645  2641  2645      1
  2646  2641  2646      1
  2647  2642  2647      1
  2648  2647  2648      1
  2649  2647  2650      1
  2650  2647  2651      1
  2651  2648  2649      1
  2652  2648  2652      1
  2653  2648  2653      1
  2654  2649  2654      1
  2655  2654  2655      1
  2656  2654  2657      1
  2657  2654  2658      1
  2658  2655  2656      1
  2659  2655  2659      1
  2660  2655  2660      1
  2661  2656  2661      1
  2662  2661  2662      1
  2663  2661  2664      1
  2664  2661  2665      1
  2665  2662  2663      1
  2666  2662  2666      1
  2667  2662  2667      1
  2668  2663  2668      1
  2669  2668  2669      1
  2670  2668  2671      1
  2671  2668  2672      1
  2672  2669  2670      1
  2673  2669  2673      1
  2674  2669  2674      1
  2675  2670  2675      1
  2676  2675  2676      1
  2677  2675  2678      1
  2678  2675  2679      1
  2679  2676  2677      1
  2680  2676  2680      1
  2681  2676  2681      1
  2682  2677  2682      1
  2683  2682  2683      1
  2684  2682  2685      1
  2685  2682  2686      1
  2686  2683  2684      1
  2687  2683  2687      1
  2688  2683  2688      1
  2689  2684  2689      1
  2690  2689  2690      1
  2691  2689  2692      1
  2692  2689  2693      1
  2693  2690  2691      1
  2694  2690  2694      1
  2695  2690  2695      1
  2696  2691  2696      1
  2697  2696  2697      1
  2698  2696  2699      1
  2699  2696  2700      1
  2700  2697  2698      1
  2701  2697  2701      1
  2702  2697  2702      1
  2703  2698  2703      1
  2704  2703  2704      1
  2705  2703  2706      1
  2706  2703  2707      1
  2707  2704  2705      1
  2708  2704  2708      1
  2709  2704  2709      1
  2710  2705  2710      1
  2711  2710  2711      1
  2712  2710  2713      1
  2713  2710  2714      1
  2714  2711  2712      1
  2715  2711  2715      1
  2716  2711  2716      1
  2717  2712  2717      1
  2718  2717  2718      1
  2719  2717  2720      1
  2720  2717  2721      1
  2721  2718  2719      1
  2722  2718  2722      1
  2723  2718  2723      1
  2724  2719  2724      1
  2725  2724  2725      1
  2726  2724  2727      1
  2727  2724  2728      1
  2728  2725  2726      1
  2729  2725  2729      1
  2730  2725  2730      1
  2731  2726  2731      1
  2732  2731  2732      1
  2733  2731  2734      1
  2734  2731  2735      1
  2735  2732  2733      1
  2736  2732  2736      1
  2737  2732  2737      1
  2738  2733  2738      1
  2739  2738  2739      1
  2740  2738  2741      1
  2741  2738  2742      1
  2742  2739  2740      1
  2743  2739  2743      1
  2744  2739  2744      1
  2745  2740  2745      1
  2746  2745  2746      1
  2747  2745  2748      1
  2748  2745  2749      1
  2749  2746  2747      1
  2750  2746  2750      1
  2751  2746  2751      1
  2752  2747  2752      1
  2753  2752  2753      1
  2754  2752  2755      1
  2755  2752  2756      1
  2756  2753  2754      1
  2757  2753  2757      1
  2758  2753  2758      1
  2759  2754  2759      1
  2760  2759  2760      1
  2761  2759  2762      1
  2762  2759  2763      1
  2763  2760  2761      1
  2764  2760  2764      1
  2765  2760  2765      1
  2766  2761  2766      1
  2767  2766  2767      1
  2768  2766  2769      1
  2769  2766  2770      1
  2770  2767  2768      1
  2771  2767  2771      1
  2772  2767  2772      1
  2773  2768  2773      1
  2774  2773  2774      1
  2775  2773  2776      1
  2776  2773  2777      1
  2777  2774  2775      1
  2778  2774  2778      1
  2779  2774  2779      1
  2780  2775  2780      1
  2781  2780  2781      1
  2782  2780  2783      1
  2783  2780  2784      1
  2784  2781  2782      1
  2785  2781  2785      1
  2786  2781  2786      1
  2787  2782  2787      1
  2788  2787  2788      1
  2789  2787  2790      1
  2790  2787  2791      1
  2791  2788  2789      1
  2792  2788  2792      1
  2793  2788  2793      1
  2794  2789  2794      1
  2795  2794  2795      1
  2796  2794  2797      1
  2797  2794  2798      1
  2798  2795  2796      1
  2799  2795  2799      1
  2800  2795  2800      1
  2801  2796  2801      1
  2802  2801  2802      1
  2803  2801  2804      1
  2804  2801  2805      1
  2805  2802  2803      1
  2806  2802  2806      1
  2807  2802  2807      1
  2808  2803  2808      1
  2809  2808  2809      1
  2810  2808  2811      1
  2811  2808  2812      1
  2812  2809  2810      1
  2813  2809  2813      1
  2814  2809  2814      1
  2815  2810  2815      1
  2816  2815  2816      1
  2817  2815  2818      1
  2818  2815  2819      1
  2819  2816  2817      1
  2820  2816  2820      1
  2821  2816  2821      1
  2822  2817  2822      1
  2823  2822  2823      1
  2824  2822  2825      1
  2825  2822  2826      1
  2826  2823  2824      1
  2827  2823  2827      1
  2828  2823  2828      1
  2829  2824  2829      1
  2830  2829  2830      1
  2831  2829  2832      1
  2832  2829  2833      1
  2833  2830  2831      1
  2834  2830  2834      1
  2835  2830  2835      1
  2836  2831  2836      1
  2837  2836  2837      1
  2838  2836  2839      1
  2839  2836  2840      1
  2840  2837  2838      1
  2841  2837  2841      1
  2842  2837  2842      1
  2843  2838  2843      1
  2844  2843  2844      1
  2845  2843  2846      1
  2846  2843  2847      1
  2847  2844  2845      1
  2848  2844  2848      1
  2849  2844  2849      1
  2850  2845  2850      1
  2851  2850  2851      1
  2852  2850  2853      1
  2853  2850  2854      1
  2854  2851  2852      1
  2855  2851  2855      1
  2856  2851  2856      1
  2857  2852  2857      1
  2858  2857  2858      1
  2859  2857  2860      1
  2860  2857  2861      1
  2861  2858  2859      1
  2862  2858  2862      1
  2863  2858  2863      1
  2864  2859  2864      1
  2865  2864  2865      1
  2866  2864  2867      1
  2867  2864  2868      1
  2868  2865  2866      1
  2869  2865  2869      1
  2870  2865  2870      1
  2871  2866  2871      1
  2872  2871  2872      1
  2873  2871  2874      1
  2874  2871  2875      1
  2875  2872  2873      1
  2876  2872  2876      1
  2877  2872  2877      1
  2878  2873  2878      1
  2879  2878  2879      1
  2880  2878  2881      1
  2881  2878  2882      1
  2882  2879  2880      1
  2883  2879  2883      1
  2884  2879  2884      1
  2885  2880  2885      1
  2886  2885  2886      1
  2887  2885  2888      1
  2888  2885  2889      1
  2889  2886  2887      1
  2890  2886  2890      1
  2891  2886  2891      1
  2892  2887  2892      1
  2893  2892  2893      1
  2894  2892  2895      1
  2895  2892  2896      1
  2896  2893  2894      1
  2897  2893  2897      1
  2898  2893  2898      1
  2899  2894  2899      1
  2900  2899  2900      1
  2901  2899  2902      1
  2902  2899  2903      1
  2903  2900  2901      1
  2904  2900  2904      1
  2905  2900  2905      1
  2906  2901  2906      1
  2907  2906  2907      1
  2908  2906  2909      1
  2909  2906  2910      1
  2910  2907  2908      1
  2911  2907  2911      1
  2912  2907  2912      1
  2913  2908  2913      1
  2914  2913  2914      1
  2915  2913  2916      1
  2916  2913  2917      1
  2917  2914  2915      1
  2918  2914  2918      1
  2919  2914  2919      1
  2920  2915  2920      1
  2921  2920  2921      1
  2922  2920  2923      1
  2923  2920  2924      1
  2924  2921  2922      1
  2925  2921  2925      1
  2926  2921  2926      1
  2927  2922  2927      1
  2928  2927  2928      1
  2929  2927  2930      1
  2930  2927  2931      1
  2931  2928  2929      1
  2932  2928  2932      1
  2933  2928  2933      1
  2934  2929  2934      1
  2935  2934  2935      1
  2936  2934  2937      1
  2937  2934  2938      1
  2938  2935  2936      1
  2939  2935  2939      1
  2940  2935  2940      1
  2941  2936  2941      1
  2942  2941  2942      1
  2943  2941  2944      1
  2944  2941  2945      1
  2945  2942  2943      1
  2946  2942  2946      1
  2947  2942  2947      1
  2948  2943  2948      1
  2949  2948  2949      1
  2950  2948  2951      1
  2951  2948  2952      1
  2952  2949  2950      1
  2953  2949  2953      1
  2954  2949  2954      1
  2955  2950  2955      1
  2956  2955  2956      1
  2957  2955  2958      1
  2958  2955  2959      1
  2959  2956  2957      1
  2960  2956  2960      1
  2961  2956  2961      1
  2962  2957  2962      1
  2963  2962  2963      1
  2964  2962  2965      1
  2965  2962  2966      1
  2966  2963  2964      1
  2967  2963  2967      1
  2968  2963  2968      1
  2969  2964  2969      1
  2970  2969  2970      1
  2971  2969  2972      1
  2972  2969  2973      1
  2973  2970  2971      1
  2974  2970  2974      1
  2975  2970  2975      1
  2976  2971  2976      1
  2977  2976  2977      1
  2978  2976  2979      1
  2979  2976  2980      1
  2980  2977  2978      1
  2981  2977  2981      1
  2982  2977  2982      1
  2983  2978  2983      1
  2984  2983  2984      1
  2985  2983  2986      1
  2986  2983  2987      1
  2987  2984  2985      1
  2988  2984  2988      1
  2989  2984  2989      1
  2990  2985  2990      1
  2991  2990  2991      1
  2992  2990  2993      1
  2993  2990  2994      1
  2994  2991  2992      1
  2995  2991  2995      1
  2996  2991  2996      1
  2997  2992  2997      1
  2998  2997  2998      1
  2999  2997  3000      1
  3000  2997  3001      1
  3001  2998  2999      1
  3002  2998  3002      1
  3003  2998  3003      1
  3004  2999  3004      1
  3005  3004  3005      1
  3006  3004  3007      1
  3007  3004  3008      1
  3008  3005  3006      1
  3009  3005  3009      1
  3010  3005  3010      1
  3011  3006  3011      1
  3012  3011  3012      1
  3013  3011  3014      1
  3014  3011  3015      1
  3015  3012  3013      1
  3016  3012  3016      1
  3017  3012  3017      1
  3018  3013  3018      1
  3019  3018  3019      1
  3020  3018  3021      1
  3021  3018  3022      1
  3022  3019  3020      1
  3023  3019  3023      1
  3024  3019  3024      1
  3025  3020  3025      1
  3026  3025  3026      1
  3027  3025  3028      1
  3028  3025  3029      1
  3029  3026  3027      1
  3030  3026  3030      1
  3031  3026  3031      1
  3032  3027  3032      1
  3033  3032  3033      1
  3034  3032  3035      1
  3035  3032  3036      1
  3036  3033  3034      1
  3037  3033  3037      1
  3038  3033  3038      1
  3039  3034  3039      1
  3040  3039  3040      1
  3041  3039  3042      1
  3042  3039  3043      1
  3043  3040  3041      1
  3044  3040  3044      1
  3045  3040  3045      1
  3046  3041  3046      1
  3047  3046  3047      1
  3048  3046  3049      1
  3049  3046  3050      1
  3050  3047  3048      1
  3051  3047  3051      1
  3052  3047  3052      1
  3053  3048  3053      1
  3054  3053  3054      1
  3055  3053  3056      1
  3056  3053  3057      1
  3057  3054  3055      1
  3058  3054  3058      1
  3059  3054  3059      1
  3060  3055  3060      1
  3061  3060  3061      1
  3062  3060  3063      1
  3063  3060  3064      1
  3064  3061  3062      1
  3065  3061  3065      1
  3066  3061  3066      1
  3067  3062  3067      1
  3068  3067  3068      1
  3069  3067  3070      1
  3070  3067  3071      1
  3071  3068  3069      1
  3072  3068  3072      1
  3073  3068  3073      1
  3074  3069  3074      1
  3075  3074  3075      1
  3076  3074  3077      1
  3077  3074  3078      1
  3078  3075  3076      1
  3079  3075  3079      1
  3080  3075  3080      1
  3081  3076  3081      1
  3082  3081  3082      1
  3083  3081  3084      1
  3084  3081  3085      1
  3085  3082  3083      1
  3086  3082  3086      1
  3087  3082  3087      1
  3088  3083  3088      1
  3089  3088  3089      1
  3090  3088  3091      1
  3091  3088  3092      1
  3092  3089  3090      1
  3093  3089  3093      1
  3094  3089  3094      1
  3095  3090  3095      1
  3096  3095  3096      1
  3097  3095  3098      1
  3098  3095  3099      1
  3099  3096  3097      1
  3100  3096  3100      1
  3101  3096  3101      1
  3102  3097  3102      1
  3103  3102  3103      1
  3104  3102  3105      1
  3105  3102  3106      1
  3106  3103  3104      1
  3107  3103  3107      1
  3108  3103  3108      1
  3109  3104  3109      1
  3110  3109  3110      1
  3111  3109  3112      1
  3112  3109  3113      1
  3113  3110  3111      1
  3114  3110  3114      1
  3115  3110  3115      1
  3116  3111  3116      1
  3117  3116  3117      1
  3118  3116  3119      1
  3119  3116  3120      1
  3120  3117  3118      1
  3121  3117  3121      1
  3122  3117  3122      1
  3123  3118  3123      1
  3124  3123  3124      1
  3125  3123  3126      1
  3126  3123  3127      1
  3127  3124  3125      1
  3128  3124  3128      1
  3129  3124  3129      1
  3130  3125  3130      1
  3131  3130  3131      1
  3132  3130  3133      1
  3133  3130  3134      1
  3134  3131  3132      1
  3135  3131  3135      1
  3136  3131  3136      1
  3137  3132  3137      1
  3138  3137  3138      1
  3139  3137  3140      1
  3140  3137  3141      1
  3141  3138  3139      1
  3142  3138  3142      1
  3143  3138  3143      1
  3144  3139  3144      1
  3145  3144  3145      1
  3146  3144  3147      1
  3147  3144  3148      1
  3148  3145  3146      1
  3149  3145  3149      1
  3150  3145  3150      1
  3151  3146  3151      1
  3152  3151  3152      1
  3153  3151  3154      1
  3154  3151  3155      1
  3155  3152  3153      1
  3156  3152  3156      1
  3157  3152  3157      1
  3158  3153  3158      1
  3159  3158  3159      1
  3160  3158  3161      1
  3161  3158  3162      1
  3162  3159  3160      1
  3163  3159  3163      1
  3164  3159  3164      1
  3165  3160  3165      1
  3166  3165  3166      1
  3167  3165  3168      1
  3168  3165  3169      1
  3169  3166  3167      1
  3170  3166  3170      1
  3171  3166  3171      1
  3172  3167  3172      1
  3173  3172  3173      1
  3174  3172  3175      1
  3175  3172  3176      1
  3176  3173  3174      1
  3177  3173  3177      1
  3178  3173  3178      1
  3179  3174  3179      1
  3180  3179  3180      1
  3181  3179  3182      1
  3182  3179  3183      1
  3183  3180  3181      1
  3184  3180  3184      1
  3185  3180  3185      1
  3186  3181  3186      1
  3187  3186  3187      1
  3188  3186  3189      1
  3189  3186  3190      1
  3190  3187  3188      1
  3191  3187  3191      1
  3192  3187  3192      1
  3193  3188  3193      1
  3194  3193  3194      1
  3195  3193  3196      1
  3196  3193  3197      1
  3197  3194  3195      1
  3198  3194  3198      1
  3199  3194  3199      1
  3200  3195  3200      1
  3201  3200  3201      1
  3202  3200  3203      1
  3203  3200  3204      1
  3204  3201  3202      1
  3205  3201  3205      1
  3206  3201  3206      1
  3207  3202  3207      1
  3208  3207  3208      1
  3209  3207  3210      1
  3210  3207  3211      1
  3211  3208  3209      1
  3212  3208  3212      1
  3213  3208  3213      1
  3214  3209  3214      1
  3215  3214  3215      1
  3216  3214  3217      1
  3217  3214  3218      1
  3218  3215  3216      1
  3219  3215  3219      1
  3220  3215  3220      1
  3221  3216  3221      1
  3222  3221  3222      1
  3223  3221  3224      1
  3224  3221  3225      1
  3225  3222  3223      1
  3226  3222  3226      1
  3227  3222  3227      1
  3228  3223  3228      1
  3229  3228  3229      1
  3230  3228  3231      1
  3231  3228  3232      1
  3232  3229  3230      1
  3233  3229  3233      1
  3234  3229  3234      1
  3235  3230  3235      1
  3236  3235  3236      1
  3237  3235  3238      1
  3238  3235  3239      1
  3239  3236  3237      1
  3240  3236  3240      1
  3241  3236  3241      1
  3242  3237  3242      1
  3243  3242  3243      1
  3244  3242  3245      1
  3245  3242  3246      1
  3246  3243  3244      1
  3247  3243  3247      1
  3248  3243  3248      1
  3249  3244  3249      1
  3250  3249  3250      1
  3251  3249  3252      1
  3252  3249  3253      1
  3253  3250  3251      1
  3254  3250  3254      1
  3255  3250  3255      1
  3256  3251  3256      1
  3257  3256  3257      1
  3258  3256  3259      1
  3259  3256  3260      1
  3260  3257  3258      1
  3261  3257  3261      1
  3262  3257  3262      1
  3263  3258  3263      1
  3264  3263  3264      1
  3265  3263  3266      1
  3266  3263  3267      1
  3267  3264  3265      1
  3268  3264  3268      1
  3269  3264  3269      1
  3270  3265  3270      1
  3271  3270  3271      1
  3272  3270  3273      1
  3273  3270  3274      1
  3274  3271  3272      1
  3275  3271  3275      1
  3276  3271  3276      1
  3277  3272  3277      1
  3278  3277  3278      1
  3279  3277  3280      1
  3280  3277  3281      1
  3281  3278  3279      1
  3282  3278  3282      1
  3283  3278  3283      1
  3284  3279  3284      1
  3285  3284  3285      1
  3286  3284  3287      1
  3287  3284  3288      1
  3288  3285  3286      1
  3289  3285  3289      1
  3290  3285  3290      1
  3291  3286  3291      1
  3292  3291  3292      1
  3293  3291  3294      1
  3294  3291  3295      1
  3295  3292  3293      1
  3296  3292  3296      1
  3297  3292  3297      1
  3298  3293  3298      1
  3299  3298  3299      1
  3300  3298  3301      1
  3301  3298  3302      1
  3302  3299  3300      1
  3303  3299  3303      1
  3304  3299  3304      1
  3305  3300  3305      1
  3306  3305  3306      1
  3307  3305  3308      1
  3308  3305  3309      1
  3309  3306  3307      1
  3310  3306  3310      1
  3311  3306  3311      1
  3312  3307  3312      1
  3313  3312  3313      1
  3314  3312  3315      1
  3315  3312  3316      1
  3316  3313  3314      1
  3317  3313  3317      1
  3318  3313  3318      1
  3319  3314  3319      1
  3320  3319  3320      1
  3321  3319  3322      1
  3322  3319  3323      1
  3323  3320  3321      1
  3324  3320  3324      1
  3325  3320  3325      1
  3326  3321  3326      1
  3327  3326  3327      1
  3328  3326  3329      1
  3329  3326  3330      1
  3330  3327  3328      1
  3331  3327  3331      1
  3332  3327  3332      1
  3333  3328  3333      1
  3334  3333  3334      1
  3335  3333  3336      1
  3336  3333  3337      1
  3337  3334  3335      1
  3338  3334  3338      1
  3339  3334  3339      1
  3340  3335  3340      1
  3341  3340  3341      1
  3342  3340  3343      1
  3343  3340  3344      1
  3344  3341  3342      1
  3345  3341  3345      1
  3346  3341  3346      1
  3347  3342  3347      1
  3348  3347  3348      1
  3349  3347  3350      1
  3350  3347  3351      1
  3351  3348  3349      1
  3352  3348  3352      1
  3353  3348  3353      1
  3354  3349  3354      1
  3355  3354  3355      1
  3356  3354  3357      1
  3357  3354  3358      1
  3358  3355  3356      1
  3359  3355  3359      1
  3360  3355  3360      1
  3361  3356  3361      1
  3362  3361  3362      1
  3363  3361  3364      1
  3364  3361  3365      1
  3365  3362  3363      1
  3366  3362  3366      1
  3367  3362  3367      1
  3368  3363  3368      1
  3369  3368  3369      1
  3370  3368  3371      1
  3371  3368  3372      1
  3372  3369  3370      1
  3373  3369  3373      1
  3374  3369  3374      1
  3375  3370  3375      1
  3376  3375  3376      1
  3377  3375  3378      1
  3378  3375  3379      1
  3379  3376  3377      1
  3380  3376  3380      1
  3381  3376  3381      1
  3382  3377  3382      1
  3383  3382  3383      1
  3384  3382  3385      1
  3385  3382  3386      1
  3386  3383  3384      1
  3387  3383  3387      1
  3388  3383  3388      1
  3389  3384  3389      1
  3390  3389  3390      1
  3391  3389  3392      1
  3392  3389  3393      1
  3393  3390  3391      1
  3394  3390  3394      1
  3395  3390  3395      1
  3396  3391  3396      1
  3397  3396  3397      1
  3398  3396  3399      1
  3399  3396  3400      1
  3400  3397  3398      1
  3401  3397  3401      1
  3402  3397  3402      1
  3403  3398  3403      1
  3404  3403  3404      1
  3405  3403  3406      1
  3406  3403  3407      1
  3407  3404  3405      1
  3408  3404  3408      1
  3409  3404  3409      1
  3410  3405  3410      1
  3411  3410  3411      1
  3412  3410  3413      1
  3413  3410  3414      1
  3414  3411  3412      1
  3415  3411  3415      1
  3416  3411  3416      1
  3417  3412  3417      1
  3418  3417  3418      1
  3419  3417  3420      1
  3420  3417  3421      1
  3421  3418  3419      1
  3422  3418  3422      1
  3423  3418  3423      1
  3424  3419  3424      1
  3425  3424  3425      1
  3426  3424  3427      1
  3427  3424  3428      1
  3428  3425  3426      1
  3429  3425  3429      1
  3430  3425  3430      1
  3431  3426  3431      1
  3432  3431  3432      1
  3433  3431  3434      1
  3434  3431  3435      1
  3435  3432  3433      1
  3436  3432  3436      1
  3437  3432  3437      1
  3438  3433  3438      1
  3439  3438  3439      1
  3440  3438  3441      1
  3441  3438  3442      1
  3442  3439  3440      1
  3443  3439  3443      1
  3444  3439  3444      1
  3445  3440  3445      1
  3446  3445  3446      1
  3447  3445  3448      1
  3448  3445  3449      1
  3449  3446  3447      1
  3450  3446  3450      1
  3451  3446  3451      1
  3452  3447  3452      1
  3453  3452  3453      1
  3454  3452  3455      1
  3455  3452  3456      1
  3456  3453  3454      1
  3457  3453  3457      1
  3458  3453  3458      1
  3459  3454  3459      1
  3460  3459  3460      1
  3461  3459  3462      1
  3462  3459  3463      1
  3463  3460  3461      1
  3464  3460  3464      1
  3465  3460  3465      1
  3466  3461  3466      1
  3467  3466  3467      1
  3468  3466  3469      1
  3469  3466  3470      1
  3470  3467  3468      1
  3471  3467  3471      1
  3472  3467  3472      1
  3473  3468  3473      1
  3474  3473  3474      1
  3475  3473  3476      1
  3476  3473  3477      1
  3477  3474  3475      1
  3478  3474  3478      1
  3479  3474  3479      1
  3480  3475  3480      1
  3481  3480  3481      1
  3482  3480  3483      1
  3483  3480  3484      1
  3484  3481  3482      1
  3485  3481  3485      1
  3486  3481  3486      1
  3487  3482  3487      1
  3488  3487  3488      1
  3489  3487  3490      1
  3490  3487  3491      1
  3491  3488  3489      1
  3492  3488  3492      1
  3493  3488  3493      1
  3494  3489  3494      1
  3495  3494  3495      1
  3496  3494  3497      1
  3497  3494  3498      1
  3498  3495  3496      1
  3499  3495  3499      1
  3500  3495  3500      1
  3501  3496  3501      1
  3502  3501  3502      1
  3503  3501  3504      1
  3504  3501  3505      1
  3505  3502  3503      1
  3506  3502  3506      1
  3507  3502  3507      1
  3508  3503  3508      1
  3509  3508  3509      1
  3510  3508  3511      1
  3511  3508  3512      1
  3512  3509  3510      1
  3513  3509  3513      1
  3514  3509  3514      1
  3515  3510  3515      1
  3516  3515  3516      1
  3517  3515  3518      1
  3518  3515  3519      1
  3519  3516  3517      1
  3520  3516  3520      1
  3521  3516  3521      1
  3522  3517  3522      1
  3523  3522  3523      1
  3524  3522  3525      1
  3525  3522  3526      1
  3526  3523  3524      1
  3527  3523  3527      1
  3528  3523  3528      1
  3529  3524  3529      1
  3530  3529  3530      1
  3531  3529  3532      1
  3532  3529  3533      1
  3533  3530  3531      1
  3534  3530  3534      1
  3535  3530  3535      1
  3536  3531  3536      1
  3537  3536  3537      1
  3538  3536  3539      1
  3539  3536  3540      1
  3540  3537  3538      1
  3541  3537  3541      1
  3542  3537  3542      1
  3543  3538  3543      1
  3544  3543  3544      1
  3545  3543  3546      1
  3546  3543  3547      1
  3547  3544  3545      1
  3548  3544  3548      1
  3549  3544  3549      1
  3550  3545  3550      1
  3551  3550  3551      1
  3552  3550  3553      1
  3553  3550  3554      1
  3554  3551  3552      1
  3555  3551  3555      1
  3556  3551  3556      1
  3557  3552  3557      1
  3558  3557  3558      1
  3559  3557  3560      1
  3560  3557  3561      1
  3561  3558  3559      1
  3562  3558  3562      1
  3563  3558  3563      1
  3564  3559  3564      1
  3565  3564  3565      1
  3566  3564  3567      1
  3567  3564  3568      1
  3568  3565  3566      1
  3569  3565  3569      1
  3570  3565  3570      1
  3571  3566  3571      1
  3572  3571  3572      1
  3573  3571  3574      1
  3574  3571  3575      1
  3575  3572  3573      1
  3576  3572  3576      1
  3577  3572  3577      1
  3578  3573  3578      1
  3579  3578  3579      1
  3580  3578  3581      1
  3581  3578  3582      1
  3582  3579  3580      1
  3583  3579  3583      1
  3584  3579  3584      1
  3585  3580  3585      1
  3586  3585  3586      1
  3587  3585  3588      1
  3588  3585  3589      1
  3589  3586  3587      1
  3590  3586  3590      1
  3591  3586  3591      1
  3592  3587  3592      1
  3593  3592  3593      1
  3594  3592  3595      1
  3595  3592  3596      1
  3596  3593  3594      1
  3597  3593  3597      1
  3598  3593  3598      1
  3599  3594  3599      1
  3600  3599  3600      1
  3601  3599  3602      1
  3602  3599  3603      1
  3603  3600  3601      1
  3604  3600  3604      1
  3605  3600  3605      1
  3606  3601  3606      1
  3607  3606  3607      1
  3608  3606  3609      1
  3609  3606  3610      1
  3610  3607  3608      1
  3611  3607  3611      1
  3612  3607  3612      1
  3613  3608  3613      1
  3614  3613  3614      1
  3615  3613  3616      1
  3616  3613  3617      1
  3617  3614  3615      1
  3618  3614  3618      1
  3619  3614  3619      1
  3620  3615  3620      1
  3621  3620  3621      1
  3622  3620  3623      1
  3623  3620  3624      1
  3624  3621  3622      1
  3625  3621  3625      1
  3626  3621  3626      1
  3627  3622  3627      1
  3628  3627  3628      1
  3629  3627  3630      1
  3630  3627  3631      1
  3631  3628  3629      1
  3632  3628  3632      1
  3633  3628  3633      1
  3634  3629  3634      1
  3635  3634  3635      1
  3636  3634  3637      1
  3637  3634  3638      1
  3638  3635  3636      1
  3639  3635  3639      1
  3640  3635  3640      1
  3641  3636  3641      1
  3642  3641  3642      1
  3643  3641  3644      1
  3644  3641  3645      1
  3645  3642  3643      1
  3646  3642  3646      1
  3647  3642  3647      1
  3648  3643  3648      1
  3649  3648  3649      1
  3650  3648  3651      1
  3651  3648  3652      1
  3652  3649  3650      1
  3653  3649  3653      1
  3654  3649  3654      1
  3655  3650  3655      1
  3656  3655  3656      1
  3657  3655  3658      1
  3658  3655  3659      1
  3659  3656  3657      1
  3660  3656  3660      1
  3661  3656  3661      1
  3662  3657  3662      1
  3663  3662  3663      1
  3664  3662  3665      1
  3665  3662  3666      1
  3666  3663  3664      1
  3667  3663  3667      1
  3668  3663  3668      1
  3669  3664  3669      1
  3670  3669  3670      1
  3671  3669  3672      1
  3672  3669  3673      1
  3673  3670  3671      1
  3674  3670  3674      1
  3675  3670  3675      1
  3676  3671  3676      1
  3677  3676  3677      1
  3678  3676  3679      1
  3679  3676  3680      1
  3680  3677  3678      1
  3681  3677  3681      1
  3682  3677  3682      1
  3683  3678  3683      1
  3684  3683  3684      1
  3685  3683  3686      1
  3686  3683  3687      1
  3687  3684  3685      1
  3688  3684  3688      1
  3689  3684  3689      1
  3690  3685  3690      1
  3691  3690  3691      1
  3692  3690  3693      1
  3693  3690  3694      1
  3694  3691  3692      1
  3695  3691  3695      1
  3696  3691  3696      1
  3697  3692  3697      1
  3698  3697  3698      1
  3699  3697  3700      1
  3700  3697  3701      1
  3701  3698  3699      1
  3702  3698  3702      1
  3703  3698  3703      1
  3704  3699  3704      1
  3705  3704  3705      1
  3706  3704  3707      1
  3707  3704  3708      1
  3708  3705  3706      1
  3709  3705  3709      1
  3710  3705  3710      1
  3711  3706  3711      1
  3712  3711  3712      1
  3713  3711  3714      1
  3714  3711  3715      1
  3715  3712  3713      1
  3716  3712  3716      1
  3717  3712  3717      1
  3718  3713  3718      1
  3719  3718  3719      1
  3720  3718  3721      1
  3721  3718  3722      1
  3722  3719  3720      1
  3723  3719  3723      1
  3724  3719  3724      1
  3725  3720  3725      1
  3726  3725  3726      1
  3727  3725  3728      1
  3728  3725  3729      1
  3729  3726  3727      1
  3730  3726  3730      1
  3731  3726  3731      1
  3732  3727  3732      1
  3733  3732  3733      1
  3734  3732  3735      1
  3735  3732  3736      1
  3736  3733  3734      1
  3737  3733  3737      1
  3738  3733  3738      1
  3739  3734  3739      1
  3740  3739  3740      1
  3741  3739  3742      1
  3742  3739  3743      1
  3743  3740  3741      1
  3744  3740  3744      1
  3745  3740  3745      1
  3746  3741  3746      1
  3747  3746  3747      1
  3748  3746  3749      1
  3749  3746  3750      1
  3750  3747  3748      1
  3751  3747  3751      1
  3752  3747  3752      1
  3753  3748  3753      1
  3754  3753  3754      1
  3755  3753  3756      1
  3756  3753  3757      1
  3757  3754  3755      1
  3758  3754  3758      1
  3759  3754  3759      1
  3760  3755  3760      1
  3761  3760  3761      1
  3762  3760  3763      1
  3763  3760  3764      1
  3764  3761  3762      1
  3765  3761  3765      1
  3766  3761  3766      1
  3767  3762  3767      1
  3768  3767  3768      1
  3769  3767  3770      1
  3770  3767  3771      1
  3771  3768  3769      1
  3772  3768  3772      1
  3773  3768  3773      1
  3774  3769  3774      1
  3775  3774  3775      1
  3776  3774  3777      1
  3777  3774  3778      1
  3778  3775  3776      1
  3779  3775  3779      1
  3780  3775  3780      1
  3781  3776  3781      1
  3782  3781  3782      1
  3783  3781  3784      1
  3784  3781  3785      1
  3785  3782  3783      1
  3786  3782  3786      1
  3787  3782  3787      1
  3788  3783  3788      1
  3789  3788  3789      1
  3790  3788  3791      1
  3791  3788  3792      1
  3792  3789  3790      1
  3793  3789  3793      1
  3794  3789  3794      1
  3795  3790  3795      1
  3796  3795  3796      1
  3797  3795  3798      1
  3798  3795  3799      1
  3799  3796  3797      1
  3800  3796  3800      1
  3801  3796  3801      1
  3802  3797  3802      1
  3803  3802  3803      1
  3804  3802  3805      1
  3805  3802  3806      1
  3806  3803  3804      1
  3807  3803  3807      1
  3808  3803  3808      1
  3809  3804  3809      1
  3810  3809  3810      1
  3811  3809  3812      1
  3812  3809  3813      1
  3813  3810  3811      1
  3814  3810  3814      1
  3815  3810  3815      1
  3816  3811  3816      1
  3817  3816  3817      1
  3818  3816  3819      1
  3819  3816  3820      1
  3820  3817  3818      1
  3821  3817  3821      1
  3822  3817  3822      1
  3823  3818  3823      1
  3824  3823  3824      1
  3825  3823  3826      1
  3826  3823  3827      1
  3827  3824  3825      1
  3828  3824  3828      1
  3829  3824  3829      1
  3830  3825  3830      1
  3831  3830  3831      1
  3832  3830  3833      1
  3833  3830  3834      1
  3834  3831  3832      1
  3835  3831  3835      1
  3836  3831  3836      1
  3837  3832  3837      1
  3838  3837  3838      1
  3839  3837  3840      1
  3840  3837  3841      1
  3841  3838  3839      1
  3842  3838  3842      1
  3843  3838  3843      1
  3844  3839  3844      1
  3845  3844  3845      1
  3846  3844  3847      1
  3847  3844  3848      1
  3848  3845  3846      1
  3849  3845  3849      1
  3850  3845  3850      1
  3851  3846  3851      1
  3852  3851  3852      1
  3853  3851  3854      1
  3854  3851  3855      1
  3855  3852  3853      1
  3856  3852  3856      1
  3857  3852  3857      1
  3858  3853  3858      1
  3859  3858  3859      1
  3860  3858  3861      1
  3861  3858  3862      1
  3862  3859  3860      1
  3863  3859  3863      1
  3864  3859  3864      1
  3865  3860  3865      1
  3866  3865  3866      1
  3867  3865  3868      1
  3868  3865  3869      1
  3869  3866  3867      1
  3870  3866  3870      1
  3871  3866  3871      1
  3872  3867  3872      1
  3873  3872  3873      1
  3874  3872  3875      1
  3875  3872  3876      1
  3876  3873  3874      1
  3877  3873  3877      1
  3878  3873  3878      1
  3879  3874  3879      1
  3880  3879  3880      1
  3881  3879  3882      1
  3882  3879  3883      1
  3883  3880  3881      1
  3884  3880  3884      1
  3885  3880  3885      1
  3886  3881  3886      1
  3887  3886  3887      1
  3888  3886  3889      1
  3889  3886  3890      1
  3890  3887  3888      1
  3891  3887  3891      1
  3892  3887  3892      1
  3893  3888  3893      1
  3894  3893  3894      1
  3895  3893  3896      1
  3896  3893  3897      1
  3897  3894  3895      1
  3898  3894  3898      1
  3899  3894  3899      1
  3900  3895  3900      1
  3901  3900  3901      1
  3902  3900  3903      1
  3903  3900  3904      1
  3904  3901  3902      1
  3905  3901  3905      1
  3906  3901  3906      1
  3907  3902  3907      1
  3908  3907  3908      1
  3909  3907  3910      1
  3910  3907  3911      1
  3911  3908  3909      1
  3912  3908  3912      1
  3913  3908  3913      1
  3914  3909  3914      1
  3915  3914  3915      1
  3916  3914  3917      1
  3917  3914  3918      1
  3918  3915  3916      1
  3919  3915  3919      1
  3920  3915  3920      1
  3921  3916  3921      1
  3922  3921  3922      1
  3923  3921  3924      1
  3924  3921  3925      1
  3925  3922  3923      1
  3926  3922  3926      1
  3927  3922  3927      1
  3928  3923  3928      1
  3929  3928  3929      1
  3930  3928  3931      1
  3931  3928  3932      1
  3932  3929  3930      1
  3933  3929  3933      1
  3934  3929  3934      1
  3935  3930  3935      1
  3936  3935  3936      1
  3937  3935  3938      1
  3938  3935  3939      1
  3939  3936  3937      1
  3940  3936  3940      1
  3941  3936  3941      1
  3942  3937  3942      1
  3943  3942  3943      1
  3944  3942  3945      1
  3945  3942  3946      1
  3946  3943  3944      1
  3947  3943  3947      1
  3948  3943  3948      1
  3949  3944  3949      1
  3950  3949  3950      1
  3951  3949  3952      1
  3952  3949  3953      1
  3953  3950  3951      1
  3954  3950  3954      1
  3955  3950  3955      1
  3956  3951  3956      1
  3957  3956  3957      1
  3958  3956  3959      1
  3959  3956  3960      1
  3960  3957  3958      1
  3961  3957  3961      1
  3962  3957  3962      1
  3963  3958  3963      1
  3964  3963  3964      1
  3965  3963  3966      1
  3966  3963  3967      1
  3967  3964  3965      1
  3968  3964  3968      1
  3969  3964  3969      1
  3970  3965  3970      1
  3971  3970  3971      1
  3972  3970  3973      1
  3973  3970  3974      1
  3974  3971  3972      1
  3975  3971  3975      1
  3976  3971  3976      1
  3977  3972  3977      1
  3978  3977  3978      1
  3979  3977  3980      1
  3980  3977  3981      1
  3981  3978  3979      1
  3982  3978  3982      1
  3983  3978  3983      1
  3984  3979  3984      1
  3985  3984  3985      1
  3986  3984  3987      1
  3987  3984  3988      1
  3988  3985  3986      1
  3989  3985  3989      1
  3990  3985  3990      1
  3991  3986  3991      1
  3992  3991  3992      1
  3993  3991  3994      1
  3994  3991  3995      1
  3995  3992  3993      1
  3996  3992  3996      1
  3997  3992  3997      1
  3998  3993  3998      1
  3999  3998  3999      1
  4000  3998  4001      1
  4001  3998  4002      1
  4002  3999  4000      1
  4003  3999  4003      1
  4004  3999  4004      1
  4005  4000  4005      1
  4006  4005  4006      1
  4007  4005  4008      1
  4008  4005  4009      1
  4009  4006  4007      1
  4010  4006  4010      1
  4011  4006  4011      1
  4012  4007  4012      1
  4013  4012  4013      1
  4014  4012  4015      1
  4015  4012  4016      1
  4016  4013  4014      1
  4017  4013  4017      1
  4018  4013  4018      1
  4019  4014  4019      1
  4020  4019  4020      1
  4021  4019  4022      1
  4022  4019  4023      1
  4023  4020  4021      1
  4024  4020  4024      1
  4025  4020  4025      1
  4026  4021  4026      1
  4027  4026  4027      1
  4028  4026  4029      1
  4029  4026  4030      1
  4030  4027  4028      1
  4031  4027  4031      1
  4032  4027  4032      1
  4033  4028  4033      1
  4034  4033  4034      1
  4035  4033  4036      1
  4036  4033  4037      1
  4037  4034  4035      1
  4038  4034  4038      1
  4039  4034  4039      1
  4040  4035  4040      1
  4041  4040  4041      1
  4042  4040  4043      1
  4043  4040  4044      1
  4044  4041  4042      1
  4045  4041  4045      1
  4046  4041  4046      1
  4047  4042  4047      1
  4048  4047  4048      1
  4049  4047  4050      1
  4050  4047  4051      1
  4051  4048  4049      1
  4052  4048  4052      1
  4053  4048  4053      1
  4054  4049  4054      1
  4055  4054  4055      1
  4056  4054  4057      1
  4057  4054  4058      1
  4058  4055  4056      1
  4059  4055  4059      1
  4060  4055  4060      1
  4061  4056  4061      1
  4062  4061  4062      1
  4063  4061  4064      1
  4064  4061  4065      1
  4065  4062  4063      1
  4066  4062  4066      1
  4067  4062  4067      1
  4068  4063  4068      1
  4069  4068  4069      1
  4070  4068  4071      1
  4071  4068  4072      1
  4072  4069  4070      1
  4073  4069  4073      1
  4074  4069  4074      1
  4075  4070  4075      1
  4076  4075  4076      1
  4077  4075  4078      1
  4078  4075  4079      1
  4079  4076  4077      1
  4080  4076  4080      1
  4081  4076  4081      1
  4082  4077  4082      1
  4083  4082  4083      1
  4084  4082  4085      1
  4085  4082  4086      1
  4086  4083  4084      1
  4087  4083  4087      1
  4088  4083  4088      1
  4089  4084  4089      1
  4090  4089  4090      1
  4091  4089  4092      1
  4092  4089  4093      1
  4093  4090  4091      1
  4094  4090  4094      1
  4095  4090  4095      1
  4096  4091  4096      1
  4097  4096  4097      1
  4098  4096  4099      1
  4099  4096  4100      1
  4100  4097  4098      1
  4101  4097  4101      1
  4102  4097  4102      1
  4103  4098  4103      1
  4104  4103  4104      1
  4105  4103  4106      1
  4106  4103  4107      1
  4107  4104  4105      1
  4108  4104  4108      1
  4109  4104  4109      1
  4110  4105  4110      1
  4111  4110  4111      1
  4112  4110  4113      1
  4113  4110  4114      1
  4114  4111  4112      1
  4115  4111  4115      1
  4116  4111  4116      1
  4117  4112  4117      1
  4118  4117  4118      1
  4119  4117  4120      1
  4120  4117  4121      1
  4121  4118  4119      1
  4122  4118  4122      1
  4123  4118  4123      1
  4124  4119  4124      1
  4125  4124  4125      1
  4126  4124  4127      1
  4127  4124  4128      1
  4128  4125  4126      1
  4129  4125  4129      1
  4130  4125  4130      1
  4131  4126  4131      1
  4132  4131  4132      1
  4133  4131  4134      1
  4134  4131  4135      1
  4135  4132  4133      1
  4136  4132  4136      1
  4137  4132  4137      1
  4138  4133  4138      1
  4139  4138  4139      1
  4140  4138  4141      1
  4141  4138  4142      1
  4142  4139  4140      1
  4143  4139  4143      1
  4144  4139  4144      1
  4145  4140  4145      1
  4146  4145  4146      1
  4147  4145  4148      1
  4148  4145  4149      1
  4149  4146  4147      1
  4150  4146  4150      1
  4151  4146  4151      1
  4152  4147  4152      1
  4153  4152  4153      1
  4154  4152  4155      1
  4155  4152  4156      1
  4156  4153  4154      1
  4157  4153  4157      1
  4158  4153  4158      1
  4159  4154  4159      1
  4160  4159  4160      1
  4161  4159  4162      1
  4162  4159  4163      1
  4163  4160  4161      1
  4164  4160  4164      1
  4165  4160  4165      1
  4166  4161  4166      1
  4167  4166  4167      1
  4168  4166  4169      1
  4169  4166  4170      1
  4170  4167  4168      1
  4171  4167  4171      1
  4172  4167  4172      1
  4173  4168  4173      1
  4174  4173  4174      1
  4175  4173  4176      1
  4176  4173  4177      1
  4177  4174  4175      1
  4178  4174  4178      1
  4179  4174  4179      1
  4180  4175  4180      1
  4181  4180  4181      1
  4182  4180  4183      1
  4183  4180  4184      1
  4184  4181  4182      1
  4185  4181  4185      1
  4186  4181  4186      1
  4187  4182  4187      1
  4188  4187  4188      1
  4189  4187  4190      1
  4190  4187  4191      1
  4191  4188  4189      1
  4192  4188  4192      1
  4193  4188  4193      1
  4194  4189  4194      1
  4195  4194  4195      1
  4196  4194  4197      1
  4197  4194  4198      1
  4198  4195  4196      1
  4199  4195  4199      1
  4200  4195  4200      1
  4201  4196  4201      1
  4202  4201  4202      1
  4203  4201  4204      1
  4204  4201  4205      1
  4205  4202  4203      1
  4206  4202  4206      1
  4207  4202  4207      1
  4208  4203  4208      1
  4209  4208  4209      1
  4210  4208  4211      1
  4211  4208  4212      1
  4212  4209  4210      1
  4213  4209  4213      1
  4214  4209  4214      1
  4215  4210  4215      1
  4216  4215  4216      1
  4217  4215  4218      1
  4218  4215  4219      1
  4219  4216  4217      1
  4220  4216  4220      1
  4221  4216  4221      1
  4222  4217  4222      1
  4223  4222  4223      1
  4224  4222  4225      1
  4225  4222  4226      1
  4226  4223  4224      1
  4227  4223  4227      1
  4228  4223  4228      1
  4229  4224  4229      1
  4230  4229  4230      1
  4231  4229  4232      1
  4232  4229  4233      1
  4233  4230  4231      1
  4234  4230  4234      1
  4235  4230  4235      1
  4236  4231  4236      1
  4237  4236  4237      1
  4238  4236  4239      1
  4239  4236  4240      1
  4240  4237  4238      1
  4241  4237  4241      1
  4242  4237  4242      1
  4243  4238  4243      1
  4244  4243  4244      1
  4245  4243  4246      1
  4246  4243  4247      1
  4247  4244  4245      1
  4248  4244  4248      1
  4249  4244  4249      1
  4250  4245  4250      1
  4251  4250  4251      1
  4252  4250  4253      1
  4253  4250  4254      1
  4254  4251  4252      1
  4255  4251  4255      1
  4256  4251  4256      1
  4257  4252  4257      1
  4258  4257  4258      1
  4259  4257  4260      1
  4260  4257  4261      1
  4261  4258  4259      1
  4262  4258  4262      1
  4263  4258  4263      1
  4264  4259  4264      1
  4265  4264  4265      1
  4266  4264  4267      1
  4267  4264  4268      1
  4268  4265  4266      1
  4269  4265  4269      1
  4270  4265  4270      1
  4271  4266  4271      1
  4272  4271  4272      1
  4273  4271  4274      1
  4274  4271  4275      1
  4275  4272  4273      1
  4276  4272  4276      1
  4277  4272  4277      1
  4278  4273  4278      1
  4279  4278  4279      1
  4280  4278  4281      1
  4281  4278  4282      1
  4282  4279  4280      1
  4283  4279  4283      1
  4284  4279  4284      1
  4285  4280  4285      1
  4286  4285  4286      1
  4287  4285  4288      1
  4288  4285  4289      1
  4289  4286  4287      1
  4290  4286  4290      1
  4291  4286  4291      1
  4292  4287  4292      1
  4293  4292  4293      1
  4294  4292  4295      1
  4295  4292  4296      1
  4296  4293  4294      1
  4297  4293  4297      1
  4298  4293  4298      1
  4299  4294  4299      1
  4300  4299  4300      1
  4301  4299  4302      1
  4302  4299  4303      1
  4303  4300  4301      1
  4304  4300  4304      1
  4305  4300  4305      1
  4306  4301  4306      1
  4307  4306  4307      1
  4308  4306  4309      1
  4309  4306  4310      1
  4310  4307  4308      1
  4311  4307  4311      1
  4312  4307  4312      1
  4313  4308  4313      1
  4314  4313  4314      1
  4315  4313  4316      1
  4316  4313  4317      1
  4317  4314  4315      1
  4318  4314  4318      1
  4319  4314  4319      1
  4320  4315  4320      1
  4321  4320  4321      1
  4322  4320  4323      1
  4323  4320  4324      1
  4324  4321  4322      1
  4325  4321  4325      1
  4326  4321  4326      1
  4327  4322  4327      1
  4328  4327  4328      1
  4329  4327  4330      1
  4330  4327  4331      1
  4331  4328  4329      1
  4332  4328  4332      1
  4333  4328  4333      1
  4334  4329  4334      1
  4335  4334  4335      1
  4336  4334  4337      1
  4337  4334  4338      1
  4338  4335  4336      1
  4339  4335  4339      1
  4340  4335  4340      1
  4341  4336  4341      1
  4342  4341  4342      1
  4343  4341  4344      1
  4344  4341  4345      1
  4345  4342  4343      1
  4346  4342  4346      1
  4347  4342  4347      1
  4348  4343  4348      1
  4349  4348  4349      1
  4350  4348  4351      1
  4351  4348  4352      1
  4352  4349  4350      1
  4353  4349  4353      1
  4354  4349  4354      1
  4355  4350  4355      1
  4356  4355  4356      1
  4357  4355  4358      1
  4358  4355  4359      1
  4359  4356  4357      1
  4360  4356  4360      1
  4361  4356  4361      1
  4362  4357  4362      1
  4363  4362  4363      1
  4364  4362  4365      1
  4365  4362  4366      1
  4366  4363  4364      1
  4367  4363  4367      1
  4368  4363  4368      1
  4369  4364  4369      1
  4370  4369  4370      1
  4371  4369  4372      1
  4372  4369  4373      1
  4373  4370  4371      1
  4374  4370  4374      1
  4375  4370  4375      1
  4376  4371  4376      1
  4377  4376  4377      1
  4378  4376  4379      1
  4379  4376  4380      1
  4380  4377  4378      1
  4381  4377  4381      1
  4382  4377  4382      1
  4383  4378  4383      1
  4384  4383  4384      1
  4385  4383  4386      1
  4386  4383  4387      1
  4387  4384  4385      1
  4388  4384  4388      1
  4389  4384  4389      1
  4390  4385  4390      1
  4391  4390  4391      1
  4392  4390  4393      1
  4393  4390  4394      1
  4394  4391  4392      1
  4395  4391  4395      1
  4396  4391  4396      1
  4397  4392  4397      1
  4398  4397  4398      1
  4399  4397  4400      1
  4400  4397  4401      1
  4401  4398  4399      1
  4402  4398  4402      1
  4403  4398  4403      1
  4404  4399  4404      1
  4405  4404  4405      1
  4406  4404  4407      1
  4407  4404  4408      1
  4408  4405  4406      1
  4409  4405  4409      1
  4410  4405  4410      1
  4411  4406  4411      1
  4412  4411  4412      1
  4413  4411  4414      1
  4414  4411  4415      1
  4415  4412  4413      1
  4416  4412  4416      1
  4417  4412  4417      1
  4418  4413  4418      1
  4419  4418  4419      1
  4420  4418  4421      1
  4421  4418  4422      1
  4422  4419  4420      1
  4423  4419  4423      1
  4424  4419  4424      1
  4425  4420  4425      1
  4426  4425  4426      1
  4427  4425  4428      1
  4428  4425  4429      1
  4429  4426  4427      1
  4430  4426  4430      1
  4431  4426  4431      1
  4432  4427  4432      1
  4433  4432  4433      1
  4434  4432  4435      1
  4435  4432  4436      1
  4436  4433  4434      1
  4437  4433  4437      1
  4438  4433  4438      1
  4439  4434  4439      1
  4440  4439  4440      1
  4441  4439  4442      1
  4442  4439  4443      1
  4443  4440  4441      1
  4444  4440  4444      1
  4445  4440  4445      1
  4446  4441  4446      1
  4447  4446  4447      1
  4448  4446  4449      1
  4449  4446  4450      1
  4450  4447  4448      1
  4451  4447  4451      1
  4452  4447  4452      1
  4453  4448  4453      1
  4454  4453  4454      1
  4455  4453  4456      1
  4456  4453  4457      1
  4457  4454  4455      1
  4458  4454  4458      1
  4459  4454  4459      1
  4460  4455  4460      1
  4461  4460  4461      1
  4462  4460  4463      1
  4463  4460  4464      1
  4464  4461  4462      1
  4465  4461  4465      1
  4466  4461  4466      1
  4467  4462  4467      1
  4468  4467  4468      1
  4469  4467  4470      1
  4470  4467  4471      1
  4471  4468  4469      1
  4472  4468  4472      1
  4473  4468  4473      1
  4474  4469  4474      1
  4475  4474  4475      1
  4476  4474  4477      1
  4477  4474  4478      1
  4478  4475  4476      1
  4479  4475  4479      1
  4480  4475  4480      1
  4481  4476  4481      1
  4482  4481  4482      1
  4483  4481  4484      1
  4484  4481  4485      1
  4485  4482  4483      1
  4486  4482  4486      1
  4487  4482  4487      1
  4488  4483  4488      1
  4489  4488  4489      1
  4490  4488  4491      1
  4491  4488  4492      1
  4492  4489  4490      1
  4493  4489  4493      1
  4494  4489  4494      1
  4495  4490  4495      1
  4496  4495  4496      1
  4497  4495  4498      1
  4498  4495  4499      1
  4499  4496  4497      1
  4500  4496  4500      1
  4501  4496  4501      1
  4502  4497  4502      1
  4503  4502  4503      1
  4504  4502  4505      1
  4505  4502  4506      1
  4506  4503  4504      1
  4507  4503  4507      1
  4508  4503  4508      1
  4509  4504  4509      1
  4510  4509  4510      1
  4511  4509  4512      1
  4512  4509  4513      1
  4513  4510  4511      1
  4514  4510  4514      1
  4515  4510  4515      1
  4516  4511  4516      1
  4517  4516  4517      1
  4518  4516  4519      1
  4519  4516  4520      1
  4520  4517  4518      1
  4521  4517  4521      1
  4522  4517  4522      1
  4523  4518  4523      1
  4524  4523  4524      1
  4525  4523  4526      1
  4526  4523  4527      1
  4527  4524  4525      1
  4528  4524  4528      1
  4529  4524  4529      1
  4530  4525  4530      1
  4531  4530  4531      1
  4532  4530  4533      1
  4533  4530  4534      1
  4534  4531  4532      1
  4535  4531  4535      1
  4536  4531  4536      1
  4537  4532  4537      1
  4538  4537  4538      1
  4539  4537  4540      1
  4540  4537  4541      1
  4541  4538  4539      1
  4542  4538  4542      1
  4543  4538  4543      1
  4544  4539  4544      1
  4545  4544  4545      1
  4546  4544  4547      1
  4547  4544  4548      1
  4548  4545  4546      1
  4549  4545  4549      1
  4550  4545  4550      1
  4551  4546  4551      1
  4552  4551  4552      1
  4553  4551  4554      1
  4554  4551  4555      1
  4555  4552  4553      1
  4556  4552  4556      1
  4557  4552  4557      1
  4558  4553  4558      1
  4559  4558  4559      1
  4560  4558  4561      1
  4561  4558  4562      1
  4562  4559  4560      1
  4563  4559  4563      1
  4564  4559  4564      1
  4565  4560  4565      1
  4566  4565  4566      1
  4567  4565  4568      1
  4568  4565  4569      1
  4569  4566  4567      1
  4570  4566  4570      1
  4571  4566  4571      1
  4572  4567  4572      1
  4573  4572  4573      1
  4574  4572  4575      1
  4575  4572  4576      1
  4576  4573  4574      1
  4577  4573  4577      1
  4578  4573  4578      1
  4579  4574  4579      1
  4580  4579  4580      1
  4581  4579  4582      1
  4582  4579  4583      1
  4583  4580  4581      1
  4584  4580  4584      1
  4585  4580  4585      1
  4586  4581  4586      1
  4587  4586  4587      1
  4588  4586  4589      1
  4589  4586  4590      1
  4590  4587  4588      1
  4591  4587  4591      1
  4592  4587  4592      1
  4593  4588  4593      1
  4594  4593  4594      1
  4595  4593  4596      1
  4596  4593  4597      1
  4597  4594  4595      1
  4598  4594  4598      1
  4599  4594  4599      1
  4600  4595  4600      1
  4601  4600  4601      1
  4602  4600  4603      1
  4603  4600  4604      1
  4604  4601  4602      1
  4605  4601  4605      1
  4606  4601  4606      1
  4607  4602  4607      1
  4608  4607  4608      1
  4609  4607  4610      1
  4610  4607  4611      1
  4611  4608  4609      1
  4612  4608  4612      1
  4613  4608  4613      1
  4614  4609  4614      1
  4615  4614  4615      1
  4616  4614  4617      1
  4617  4614  4618      1
  4618  4615  4616      1
  4619  4615  4619      1
  4620  4615  4620      1
  4621  4616  4621      1
  4622  4621  4622      1
  4623  4621  4624      1
  4624  4621  4625      1
  4625  4622  4623      1
  4626  4622  4626      1
  4627  4622  4627      1
  4628  4623  4628      1
  4629  4628  4629      1
  4630  4628  4631      1
  4631  4628  4632      1
  4632  4629  4630      1
  4633  4629  4633      1
  4634  4629  4634      1
  4635  4630  4635      1
  4636  4635  4636      1
  4637  4635  4638      1
  4638  4635  4639      1
  4639  4636  4637      1
  4640  4636  4640      1
  4641  4636  4641      1
  4642  4637  4642      1
  4643  4642  4643      1
  4644  4642  4645      1
  4645  4642  4646      1
  4646  4643  4644      1
  4647  4643  4647      1
  4648  4643  4648      1
  4649  4644  4649      1
  4650  4649  4650      1
  4651  4649  4652      1
  4652  4649  4653      1
  4653  4650  4651      1
  4654  4650  4654      1
  4655  4650  4655      1
  4656  4651  4656      1
  4657  4656  4657      1
  4658  4656  4659      1
  4659  4656  4660      1
  4660  4657  4658      1
  4661  4657  4661      1
  4662  4657  4662      1
  4663  4658  4663      1
  4664  4663  4664      1
  4665  4663  4666      1
  4666  4663  4667      1
  4667  4664  4665      1
  4668  4664  4668      1
  4669  4664  4669      1
  4670  4665  4670      1
  4671  4670  4671      1
  4672  4670  4673      1
  4673  4670  4674      1
  4674  4671  4672      1
  4675  4671  4675      1
  4676  4671  4676      1
  4677  4672  4677      1
  4678  4677  4678      1
  4679  4677  4680      1
  4680  4677  4681      1
  4681  4678  4679      1
  4682  4678  4682      1
  4683  4678  4683      1
  4684  4679  4684      1
  4685  4684  4685      1
  4686  4684  4687      1
  4687  4684  4688      1
  4688  4685  4686      1
  4689  4685  4689      1
  4690  4685  4690      1
  4691  4686  4691      1
  4692  4691  4692      1
  4693  4691  4694      1
  4694  4691  4695      1
  4695  4692  4693      1
  4696  4692  4696      1
  4697  4692  4697      1
  4698  4693  4698      1
  4699  4698  4699      1
  4700  4698  4701      1
  4701  4698  4702      1
  4702  4699  4700      1
  4703  4699  4703      1
  4704  4699  4704      1
  4705  4700  4705      1
  4706  4705  4706      1
  4707  4705  4708      1
  4708  4705  4709      1
  4709  4706  4707      1
  4710  4706  4710      1
  4711  4706  4711      1
  4712  4707  4712      1
  4713  4712  4713      1
  4714  4712  4715      1
  4715  4712  4716      1
  4716  4713  4714      1
  4717  4713  4717      1
  4718  4713  4718      1
  4719  4714  4719      1
  4720  4719  4720      1
  4721  4719  4722      1
  4722  4719  4723      1
  4723  4720  4721      1
  4724  4720  4724      1
  4725  4720  4725      1
  4726  4721  4726      1
  4727  4726  4727      1
  4728  4726  4729      1
  4729  4726  4730      1
  4730  4727  4728      1
  4731  4727  4731      1
  4732  4727  4732      1
  4733  4728  4733      1
  4734  4733  4734      1
  4735  4733  4736      1
  4736  4733  4737      1
  4737  4734  4735      1
  4738  4734  4738      1
  4739  4734  4739      1
  4740  4735  4740      1
  4741  4740  4741      1
  4742  4740  4743      1
  4743  4740  4744      1
  4744  4741  4742      1
  4745  4741  4745      1
  4746  4741  4746      1
  4747  4742  4747      1
  4748  4747  4748      1
  4749  4747  4750      1
  4750  4747  4751      1
  4751  4748  4749      1
  4752  4748  4752      1
  4753  4748  4753      1
  4754  4749  4754      1
  4755  4754  4755      1
  4756  4754  4757      1
  4757  4754  4758      1
  4758  4755  4756      1
  4759  4755  4759      1
  4760  4755  4760      1
  4761  4756  4761      1
  4762  4761  4762      1
  4763  4761  4764      1
  4764  4761  4765      1
  4765  4762  4763      1
  4766  4762  4766      1
  4767  4762  4767      1
  4768  4763  4768      1
  4769  4768  4769      1
  4770  4768  4771      1
  4771  4768  4772      1
  4772  4769  4770      1
  4773  4769  4773      1
  4774  4769  4774      1
  4775  4770  4775      1
  4776  4775  4776      1
  4777  4775  4778      1
  4778  4775  4779      1
  4779  4776  4777      1
  4780  4776  4780      1
  4781  4776  4781      1
  4782  4777  4782      1
  4783  4782  4783      1
  4784  4782  4785      1
  4785  4782  4786      1
  4786  4783  4784      1
  4787  4783  4787      1
  4788  4783  4788      1
  4789  4784  4789      1
  4790  4789  4790      1
  4791  4789  4792      1
  4792  4789  4793      1
  4793  4790  4791      1
  4794  4790  4794      1
  4795  4790  4795      1
  4796  4791  4796      1
  4797  4796  4797      1
  4798  4796  4799      1
  4799  4796  4800      1
  4800  4797  4798      1
  4801  4797  4801      1
  4802  4797  4802      1
  4803  4798  4803      1
  4804  4803  4804      1
  4805  4803  4806      1
  4806  4803  4807      1
  4807  4804  4805      1
  4808  4804  4808      1
  4809  4804  4809      1
  4810  4805  4810      1
  4811  4810  4811      1
  4812  4810  4813      1
  4813  4810  4814      1
  4814  4811  4812      1
  4815  4811  4815      1
  4816  4811  4816      1
  4817  4812  4817      1
  4818  4817  4818      1
  4819  4817  4820      1
  4820  4817  4821      1
  4821  4818  4819      1
  4822  4818  4822      1
  4823  4818  4823      1
  4824  4819  4824      1
  4825  4824  4825      1
  4826  4824  4827      1
  4827  4824  4828      1
  4828  4825  4826      1
  4829  4825  4829      1
  4830  4825  4830      1
  4831  4826  4831      1
  4832  4831  4832      1
  4833  4831  4834      1
  4834  4831  4835      1
  4835  4832  4833      1
  4836  4832  4836      1
  4837  4832  4837      1
  4838  4833  4838      1
  4839  4838  4839      1
  4840  4838  4841      1
  4841  4838  4842      1
  4842  4839  4840      1
  4843  4839  4843      1
  4844  4839  4844      1
  4845  4840  4845      1
  4846  4845  4846      1
  4847  4845  4848      1
  4848  4845  4849      1
  4849  4846  4847      1
  4850  4846  4850      1
  4851  4846  4851      1
  4852  4847  4852      1
  4853  4852  4853      1
  4854  4852  4855      1
  4855  4852  4856      1
  4856  4853  4854      1
  4857  4853  4857      1
  4858  4853  4858      1
  4859  4854  4859      1
  4860  4859  4860      1
  4861  4859  4862      1
  4862  4859  4863      1
  4863  4860  4861      1
  4864  4860  4864      1
  4865  4860  4865      1
  4866  4861  4866      1
  4867  4866  4867      1
  4868  4866  4869      1
  4869  4866  4870      1
  4870  4867  4868      1
  4871  4867  4871      1
  4872  4867  4872      1
  4873  4868  4873      1
  4874  4873  4874      1
  4875  4873  4876      1
  4876  4873  4877      1
  4877  4874  4875      1
  4878  4874  4878      1
  4879  4874  4879      1
  4880  4875  4880      1
  4881  4880  4881      1
  4882  4880  4883      1
  4883  4880  4884      1
  4884  4881  4882      1
  4885  4881  4885      1
  4886  4881  4886      1
  4887  4882  4887      1
  4888  4887  4888      1
  4889  4887  4890      1
  4890  4887  4891      1
  4891  4888  4889      1
  4892  4888  4892      1
  4893  4888  4893      1
  4894  4889  4894      1
  4895  4894  4895      1
  4896  4894  4897      1
  4897  4894  4898      1
  4898  4895  4896      1
  4899  4895  4899      1
  4900  4895  4900      1
  4901  4896  4901      1
  4902  4901  4902      1
  4903  4901  4904      1
  4904  4901  4905      1
  4905  4902  4903      1
  4906  4902  4906      1
  4907  4902  4907      1
  4908  4903  4908      1
  4909  4908  4909      1
  4910  4908  4911      1
  4911  4908  4912      1
  4912  4909  4910      1
  4913  4909  4913      1
  4914  4909  4914      1
  4915  4910  4915      1
  4916  4915  4916      1
  4917  4915  4918      1
  4918  4915  4919      1
  4919  4916  4917      1
  4920  4916  4920      1
  4921  4916  4921      1
  4922  4917  4922      1
  4923  4922  4923      1
  4924  4922  4925      1
  4925  4922  4926      1
  4926  4923  4924      1
  4927  4923  4927      1
  4928  4923  4928      1
  4929  4924  4929      1
  4930  4929  4930      1
  4931  4929  4932      1
  4932  4929  4933      1
  4933  4930  4931      1
  4934  4930  4934      1
  4935  4930  4935      1
  4936  4931  4936      1
  4937  4936  4937      1
  4938  4936  4939      1
  4939  4936  4940      1
  4940  4937  4938      1
  4941  4937  4941      1
  4942  4937  4942      1
  4943  4938  4943      1
  4944  4943  4944      1
  4945  4943  4946      1
  4946  4943  4947      1
  4947  4944  4945      1
  4948  4944  4948      1
  4949  4944  4949      1
  4950  4945  4950      1
  4951  4950  4951      1
  4952  4950  4953      1
  4953  4950  4954      1
  4954  4951  4952      1
  4955  4951  4955      1
  4956  4951  4956      1
  4957  4952  4957      1
  4958  4957  4958      1
  4959  4957  4960      1
  4960  4957  4961      1
  4961  4958  4959      1
  4962  4958  4962      1
  4963  4958  4963      1
  4964  4959  4964      1
  4965  4964  4965      1
  4966  4964  4967      1
  4967  4964  4968      1
  4968  4965  4966      1
  4969  4965  4969      1
  4970  4965  4970      1
  4971  4966  4971      1
  4972  4971  4972      1
  4973  4971  4974      1
  4974  4971  4975      1
  4975  4972  4973      1
  4976  4972  4976      1
  4977  4972  4977      1
  4978  4973  4978      1
  4979  4978  4979      1
  4980  4978  4981      1
  4981  4978  4982      1
  4982  4979  4980      1
  4983  4979  4983      1
  4984  4979  4984      1
  4985  4980  4985      1
  4986  4985  4986      1
  4987  4985  4988      1
  4988  4985  4989      1
  4989  4986  4987      1
  4990  4986  4990      1
  4991  4986  4991      1
  4992  4987  4992      1
  4993  4992  4993      1
  4994  4992  4995      1
  4995  4992  4996      1
  4996  4993  4994      1
  4997  4993  4997      1
  4998  4993  4998      1
  4999  4994  4999      1
  5000  4999  5000      1
  5001  4999  5002      1
  5002  4999  5003      1
  5003  5000  5001      1
  5004  5000  5004      1
  5005  5000  5005      1
  5006  5001  5006      1
  5007  5006  5007      1
  5008  5006  5009      1
  5009  5006  5010      1
  5010  5007  5008      1
  5011  5007  5011      1
  5012  5007  5012      1
  5013  5008  5013      1
  5014  5013  5014      1
  5015  5013  5016      1
  5016  5013  5017      1
  5017  5014  5015      1
  5018  5014  5018      1
  5019  5014  5019      1
  5020  5015  5020      1
  5021  5020  5021      1
  5022  5020  5023      1
  5023  5020  5024      1
  5024  5021  5022      1
  5025  5021  5025      1
  5026  5021  5026      1
  5027  5022  5027      1
  5028  5027  5028      1
  5029  5027  5030      1
  5030  5027  5031      1
  5031  5028  5029      1
  5032  5028  5032      1
  5033  5028  5033      1
  5034  5029  5034      1
  5035  5034  5035      1
  5036  5034  5037      1
  5037  5034  5038      1
  5038  5035  5036      1
  5039  5035  5039      1
  5040  5035  5040      1
  5041  5036  5041      1
  5042  5041  5042      1
  5043  5041  5044      1
  5044  5041  5045      1
  5045  5042  5043      1
  5046  5042  5046      1
  5047  5042  5047      1
  5048  5043  5048      1
  5049  5048  5049      1
  5050  5048  5051      1
  5051  5048  5052      1
  5052  5049  5050      1
  5053  5049  5053      1
  5054  5049  5054      1
  5055  5050  5055      1
  5056  5055  5056      1
  5057  5055  5058      1
  5058  5055  5059      1
  5059  5056  5057      1
  5060  5056  5060      1
  5061  5056  5061      1
  5062  5057  5062      1
  5063  5062  5063      1
  5064  5062  5065      1
  5065  5062  5066      1
  5066  5063  5064      1
  5067  5063  5067      1
  5068  5063  5068      1
  5069  5064  5069      1
  5070  5069  5070      1
  5071  5069  5072      1
  5072  5069  5073      1
  5073  5070  5071      1
  5074  5070  5074      1
  5075  5070  5075      1
  5076  5071  5076      1
  5077  5076  5077      1
  5078  5076  5079      1
  5079  5076  5080      1
  5080  5077  5078      1
  5081  5077  5081      1
  5082  5077  5082      1
  5083  5078  5083      1
  5084  5083  5084      1
  5085  5083  5086      1
  5086  5083  5087      1
  5087  5084  5085      1
  5088  5084  5088      1
  5089  5084  5089      1
  5090  5085  5090      1
  5091  5090  5091      1
  5092  5090  5093      1
  5093  5090  5094      1
  5094  5091  5092      1
  5095  5091  5095      1
  5096  5091  5096      1
  5097  5092  5097      1
  5098  5097  5098      1
  5099  5097  5100      1
  5100  5097  5101      1
  5101  5098  5099      1
  5102  5098  5102      1
  5103  5098  5103      1
  5104  5099  5104      1
  5105  5104  5105      1
  5106  5104  5107      1
  5107  5104  5108      1
  5108  5105  5106      1
  5109  5105  5109      1
  5110  5105  5110      1
  5111  5106  5111      1
  5112  5111  5112      1
  5113  5111  5114      1
  5114  5111  5115      1
  5115  5112  5113      1
  5116  5112  5116      1
  5117  5112  5117      1
  5118  5113  5118      1
  5119  5118  5119      1
  5120  5118  5121      1
  5121  5118  5122      1
  5122  5119  5120      1
  5123  5119  5123      1
  5124  5119  5124      1
  5125  5120  5125      1
  5126  5125  5126      1
  5127  5125  5128      1
  5128  5125  5129      1
  5129  5126  5127      1
  5130  5126  5130      1
  5131  5126  5131      1
  5132  5127  5132      1
  5133  5132  5133      1
  5134  5132  5135      1
  5135  5132  5136      1
  5136  5133  5134      1
  5137  5133  5137      1
  5138  5133  5138      1
  5139  5134  5139      1
  5140  5139  5140      1
  5141  5139  5142      1
  5142  5139  5143      1
  5143  5140  5141      1
  5144  5140  5144      1
  5145  5140  5145      1
  5146  5141  5146      1
  5147  5146  5147      1
  5148  5146  5149      1
  5149  5146  5150      1
  5150  5147  5148      1
  5151  5147  5151      1
  5152  5147  5152      1
  5153  5148  5153      1
  5154  5153  5154      1
  5155  5153  5156      1
  5156  5153  5157      1
  5157  5154  5155      1
  5158  5154  5158      1
  5159  5154  5159      1
  5160  5155  5160      1
  5161  5160  5161      1
  5162  5160  5163      1
  5163  5160  5164      1
  5164  5161  5162      1
  5165  5161  5165      1
  5166  5161  5166      1
  5167  5162  5167      1
  5168  5167  5168      1
  5169  5167  5170      1
  5170  5167  5171      1
  5171  5168  5169      1
  5172  5168  5172      1
  5173  5168  5173      1
  5174  5169  5174      1
  5175  5174  5175      1
  5176  5174  5177      1
  5177  5174  5178      1
  5178  5175  5176      1
  5179  5175  5179      1
  5180  5175  5180      1
  5181  5176  5181      1
  5182  5181  5182      1
  5183  5181  5184      1
  5184  5181  5185      1
  5185  5182  5183      1
  5186  5182  5186      1
  5187  5182  5187      1
  5188  5183  5188      1
  5189  5188  5189      1
  5190  5188  5191      1
  5191  5188  5192      1
  5192  5189  5190      1
  5193  5189  5193      1
  5194  5189  5194      1
  5195  5190  5195      1
  5196  5195  5196      1
  5197  5195  5198      1
  5198  5195  5199      1
  5199  5196  5197      1
  5200  5196  5200      1
  5201  5196  5201      1
  5202  5197  5202      1
  5203  5202  5203      1
  5204  5202  5205      1
  5205  5202  5206      1
  5206  5203  5204      1
  5207  5203  5207      1
  5208  5203  5208      1
  5209  5204  5209      1
  5210  5209  5210      1
  5211  5209  5212      1
  5212  5209  5213      1
  5213  5210  5211      1
  5214  5210  5214      1
  5215  5210  5215      1
  5216  5211  5216      1
  5217  5216  5217      1
  5218  5216  5219      1
  5219  5216  5220      1
  5220  5217  5218      1
  5221  5217  5221      1
  5222  5217  5222      1
  5223  5218  5223      1
  5224  5223  5224      1
  5225  5223  5226      1
  5226  5223  5227      1
  5227  5224  5225      1
  5228  5224  5228      1
  5229  5224  5229      1
  5230  5225  5230      1
  5231  5230  5231      1
  5232  5230  5233      1
  5233  5230  5234      1
  5234  5231  5232      1
  5235  5231  5235      1
  5236  5231  5236      1
  5237  5232  5237      1
  5238  5237  5238      1
  5239  5237  5240      1
  5240  5237  5241      1
  5241  5238  5239      1
  5242  5238  5242      1
  5243  5238  5243      1
  5244  5239  5244      1
  5245  5244  5245      1
  5246  5244  5247      1
  5247  5244  5248      1
  5248  5245  5246      1
  5249  5245  5249      1
  5250  5245  5250      1
  5251  5246  5251      1
  5252  5251  5252      1
  5253  5251  5254      1
  5254  5251  5255      1
  5255  5252  5253      1
  5256  5252  5256      1
  5257  5252  5257      1
  5258  5253  5258      1
  5259  5258  5259      1
  5260  5258  5261      1
  5261  5258  5262      1
  5262  5259  5260      1
  5263  5259  5263      1
  5264  5259  5264      1
  5265  5260  5265      1
  5266  5265  5266      1
  5267  5265  5268      1
  5268  5265  5269      1
  5269  5266  5267      1
  5270  5266  5270      1
  5271  5266  5271      1
  5272  5267  5272      1
  5273  5272  5273      1
  5274  5272  5275      1
  5275  5272  5276      1
  5276  5273  5274      1
  5277  5273  5277      1
  5278  5273  5278      1
  5279  5274  5279      1
  5280  5279  5280      1
  5281  5279  5282      1
  5282  5279  5283      1
  5283  5280  5281      1
  5284  5280  5284      1
  5285  5280  5285      1
  5286  5281  5286      1
  5287  5286  5287      1
  5288  5286  5289      1
  5289  5286  5290      1
  5290  5287  5288      1
  5291  5287  5291      1
  5292  5287  5292      1
  5293  5288  5293      1
  5294  5293  5294      1
  5295  5293  5296      1
  5296  5293  5297      1
  5297  5294  5295      1
  5298  5294  5298      1
  5299  5294  5299      1
  5300  5295  5300      1
  5301  5300  5301      1
  5302  5300  5303      1
  5303  5300  5304      1
  5304  5301  5302      1
  5305  5301  5305      1
  5306  5301  5306      1
  5307  5302  5307      1
  5308  5307  5308      1
  5309  5307  5310      1
  5310  5307  5311      1
  5311  5308  5309      1
  5312  5308  5312      1
  5313  5308  5313      1
  5314  5309  5314      1
  5315  5314  5315      1
  5316  5314  5317      1
  5317  5314  5318      1
  5318  5315  5316      1
  5319  5315  5319      1
  5320  5315  5320      1
  5321  5316  5321      1
  5322  5321  5322      1
  5323  5321  5324      1
  5324  5321  5325      1
  5325  5322  5323      1
  5326  5322  5326      1
  5327  5322  5327      1
  5328  5323  5328      1
  5329  5328  5329      1
  5330  5328  5331      1
  5331  5328  5332      1
  5332  5329  5330      1
  5333  5329  5333      1
  5334  5329  5334      1
  5335  5330  5335      1
  5336  5335  5336      1
  5337  5335  5338      1
  5338  5335  5339      1
  5339  5336  5337      1
  5340  5336  5340      1
  5341  5336  5341      1
  5342  5337  5342      1
  5343  5342  5343      1
  5344  5342  5345      1
  5345  5342  5346      1
  5346  5343  5344      1
  5347  5343  5347      1
  5348  5343  5348      1
  5349  5344  5349      1
  5350  5349  5350      1
  5351  5349  5352      1
  5352  5349  5353      1
  5353  5350  5351      1
  5354  5350  5354      1
  5355  5350  5355      1
  5356  5351  5356      1
  5357  5356  5357      1
  5358  5356  5359      1
  5359  5356  5360      1
  5360  5357  5358      1
  5361  5357  5361      1
  5362  5357  5362      1
  5363  5358  5363      1
  5364  5363  5364      1
  5365  5363  5366      1
  5366  5363  5367      1
  5367  5364  5365      1
  5368  5364  5368      1
  5369  5364  5369      1
  5370  5365  5370      1
  5371  5370  5371      1
  5372  5370  5373      1
  5373  5370  5374      1
  5374  5371  5372      1
  5375  5371  5375      1
  5376  5371  5376      1
  5377  5372  5377      1
  5378  5377  5378      1
  5379  5377  5380      1
  5380  5377  5381      1
  5381  5378  5379      1
  5382  5378  5382      1
  5383  5378  5383      1
  5384  5379  5384      1
  5385  5384  5385      1
  5386  5384  5387      1
  5387  5384  5388      1
  5388  5385  5386      1
  5389  5385  5389      1
  5390  5385  5390      1
  5391  5386  5391      1
  5392  5391  5392      1
  5393  5391  5394      1
  5394  5391  5395      1
  5395  5392  5393      1
  5396  5392  5396      1
  5397  5392  5397      1
  5398  5393  5398      1
  5399  5398  5399      1
  5400  5398  5401      1
  5401  5398  5402      1
  5402  5399  5400      1
  5403  5399  5403      1
  5404  5399  5404      1
  5405  5400  5405      1
  5406  5405  5406      1
  5407  5405  5408      1
  5408  5405  5409      1
  5409  5406  5407      1
  5410  5406  5410      1
  5411  5406  5411      1
  5412  5407  5412      1
  5413  5412  5413      1
  5414  5412  5415      1
  5415  5412  5416      1
  5416  5413  5414      1
  5417  5413  5417      1
  5418  5413  5418      1
  5419  5414  5419      1
  5420  5419  5420      1
  5421  5419  5422      1
  5422  5419  5423      1
  5423  5420  5421      1
  5424  5420  5424      1
  5425  5420  5425      1
  5426  5421  5426      1
  5427  5426  5427      1
  5428  5426  5429      1
  5429  5426  5430      1
  5430  5427  5428      1
  5431  5427  5431      1
  5432  5427  5432      1
  5433  5428  5433      1
  5434  5433  5434      1
  5435  5433  5436      1
  5436  5433  5437      1
  5437  5434  5435      1
  5438  5434  5438      1
  5439  5434  5439      1
  5440  5435  5440      1
  5441  5440  5441      1
  5442  5440  5443      1
  5443  5440  5444      1
  5444  5441  5442      1
  5445  5441  5445      1
  5446  5441  5446      1
  5447  5442  5447      1
  5448  5447  5448      1
  5449  5447  5450      1
  5450  5447  5451      1
  5451  5448  5449      1
  5452  5448  5452      1
  5453  5448  5453      1
  5454  5449  5454      1
  5455  5454  5455      1
  5456  5454  5457      1
  5457  5454  5458      1
  5458  5455  5456      1
  5459  5455  5459      1
  5460  5455  5460      1
  5461  5456  5461      1
  5462  5461  5462      1
  5463  5461  5464      1
  5464  5461  5465      1
  5465  5462  5463      1
  5466  5462  5466      1
  5467  5462  5467      1
  5468  5463  5468      1
  5469  5468  5469      1
  5470  5468  5471      1
  5471  5468  5472      1
  5472  5469  5470      1
  5473  5469  5473      1
  5474  5469  5474      1
  5475  5470  5475      1
  5476  5475  5476      1
  5477  5475  5478      1
  5478  5475  5479      1
  5479  5476  5477      1
  5480  5476  5480      1
  5481  5476  5481      1
  5482  5477  5482      1
  5483  5482  5483      1
  5484  5482  5485      1
  5485  5482  5486      1
  5486  5483  5484      1
  5487  5483  5487      1
  5488  5483  5488      1
  5489  5484  5489      1
  5490  5489  5490      1
  5491  5489  5492      1
  5492  5489  5493      1
  5493  5490  5491      1
  5494  5490  5494      1
  5495  5490  5495      1
  5496  5491  5496      1
  5497  5496  5497      1
  5498  5496  5499      1
  5499  5496  5500      1
  5500  5497  5498      1
  5501  5497  5501      1
  5502  5497  5502      1
  5503  5498  5503      1
  5504  5503  5504      1
  5505  5503  5506      1
  5506  5503  5507      1
  5507  5504  5505      1
  5508  5504  5508      1
  5509  5504  5509      1
  5510  5505  5510      1
  5511  5510  5511      1
  5512  5510  5513      1
  5513  5510  5514      1
  5514  5511  5512      1
  5515  5511  5515      1
  5516  5511  5516      1
  5517  5512  5517      1
  5518  5517  5518      1
  5519  5517  5520      1
  5520  5517  5521      1
  5521  5518  5519      1
  5522  5518  5522      1
  5523  5518  5523      1
  5524  5519  5524      1
  5525  5524  5525      1
  5526  5524  5527      1
  5527  5524  5528      1
  5528  5525  5526      1
  5529  5525  5529      1
  5530  5525  5530      1
  5531  5526  5531      1
  5532  5531  5532      1
  5533  5531  5534      1
  5534  5531  5535      1
  5535  5532  5533      1
  5536  5532  5536      1
  5537  5532  5537      1
  5538  5533  5538      1
  5539  5538  5539      1
  5540  5538  5541      1
  5541  5538  5542      1
  5542  5539  5540      1
  5543  5539  5543      1
  5544  5539  5544      1
  5545  5540  5545      1
  5546  5545  5546      1
  5547  5545  5548      1
  5548  5545  5549      1
  5549  5546  5547      1
  5550  5546  5550      1
  5551  5546  5551      1
  5552  5547  5552      1
  5553  5552  5553      1
  5554  5552  5555      1
  5555  5552  5556      1
  5556  5553  5554      1
  5557  5553  5557      1
  5558  5553  5558      1
  5559  5554  5559      1
  5560  5559  5560      1
  5561  5559  5562      1
  5562  5559  5563      1
  5563  5560  5561      1
  5564  5560  5564      1
  5565  5560  5565      1
  5566  5561  5566      1
  5567  5566  5567      1
  5568  5566  5569      1
  5569  5566  5570      1
  5570  5567  5568      1
  5571  5567  5571      1
  5572  5567  5572      1
  5573  5568  5573      1
  5574  5573  5574      1
  5575  5573  5576      1
  5576  5573  5577      1
  5577  5574  5575      1
  5578  5574  5578      1
  5579  5574  5579      1
  5580  5575  5580      1
  5581  5580  5581      1
  5582  5580  5583      1
  5583  5580  5584      1
  5584  5581  5582      1
  5585  5581  5585      1
  5586  5581  5586      1
  5587  5582  5587      1
  5588  5587  5588      1
  5589  5587  5590      1
  5590  5587  5591      1
  5591  5588  5589      1
  5592  5588  5592      1
  5593  5588  5593      1
  5594  5589  5594      1
  5595  5594  5595      1
  5596  5594  5597      1
  5597  5594  5598      1
  5598  5595  5596      1
  5599  5595  5599      1
  5600  5595  5600      1
  5601  5596  5601      1
  5602  5601  5602      1
  5603  5601  5604      1
  5604  5601  5605      1
  5605  5602  5603      1
  5606  5602  5606      1
  5607  5602  5607      1
  5608  5603  5608      1
  5609  5608  5609      1
  5610  5608  5611      1
  5611  5608  5612      1
  5612  5609  5610      1
  5613  5609  5613      1
  5614  5609  5614      1
  5615  5610  5615      1
  5616  5615  5616      1
  5617  5615  5618      1
  5618  5615  5619      1
  5619  5616  5617      1
  5620  5616  5620      1
  5621  5616  5621      1
  5622  5617  5622      1
  5623  5622  5623      1
  5624  5622  5625      1
  5625  5622  5626      1
  5626  5623  5624      1
  5627  5623  5627      1
  5628  5623  5628      1
  5629  5624  5629      1
  5630  5629  5630      1
  5631  5629  5632      1
  5632  5629  5633      1
  5633  5630  5631      1
  5634  5630  5634      1
  5635  5630  5635      1
  5636  5631  5636      1
  5637  5636  5637      1
  5638  5636  5639      1
  5639  5636  5640      1
  5640  5637  5638      1
  5641  5637  5641      1
  5642  5637  5642      1
  5643  5638  5643      1
  5644  5643  5644      1
  5645  5643  5646      1
  5646  5643  5647      1
  5647  5644  5645      1
  5648  5644  5648      1
  5649  5644  5649      1
  5650  5645  5650      1
  5651  5650  5651      1
  5652  5650  5653      1
  5653  5650  5654      1
  5654  5651  5652      1
  5655  5651  5655      1
  5656  5651  5656      1
  5657  5652  5657      1
  5658  5657  5658      1
  5659  5657  5660      1
  5660  5657  5661      1
  5661  5658  5659      1
  5662  5658  5662      1
  5663  5658  5663      1
  5664  5659  5664      1
  5665  5664  5665      1
  5666  5664  5667      1
  5667  5664  5668      1
  5668  5665  5666      1
  5669  5665  5669      1
  5670  5665  5670      1
  5671  5666  5671      1
  5672  5671  5672      1
  5673  5671  5674      1
  5674  5671  5675      1
  5675  5672  5673      1
  5676  5672  5676      1
  5677  5672  5677      1
  5678  5673  5678      1
  5679  5678  5679      1
  5680  5678  5681      1
  5681  5678  5682      1
  5682  5679  5680      1
  5683  5679  5683      1
  5684  5679  5684      1
  5685  5680  5685      1
  5686  5685  5686      1
  5687  5685  5688      1
  5688  5685  5689      1
  5689  5686  5687      1
  5690  5686  5690      1
  5691  5686  5691      1
  5692  5687  5692      1
  5693  5692  5693      1
  5694  5692  5695      1
  5695  5692  5696      1
  5696  5693  5694      1
  5697  5693  5697      1
  5698  5693  5698      1
  5699  5694  5699      1
  5700  5699  5700      1
  5701  5699  5702      1
  5702  5699  5703      1
  5703  5700  5701      1
  5704  5700  5704      1
  5705  5700  5705      1
  5706  5701  5706      1
  5707  5706  5707      1
  5708  5706  5709      1
  5709  5706  5710      1
  5710  5707  5708      1
  5711  5707  5711      1
  5712  5707  5712      1
  5713  5708  5713      1
  5714  5713  5714      1
  5715  5713  5716      1
  5716  5713  5717      1
  5717  5714  5715      1
  5718  5714  5718      1
  5719  5714  5719      1
  5720  5715  5720      1
  5721  5720  5721      1
  5722  5720  5723      1
  5723  5720  5724      1
  5724  5721  5722      1
  5725  5721  5725      1
  5726  5721  5726      1
  5727  5722  5727      1
  5728  5727  5728      1
  5729  5727  5730      1
  5730  5727  5731      1
  5731  5728  5729      1
  5732  5728  5732      1
  5733  5728  5733      1
  5734  5729  5734      1
  5735  5734  5735      1
  5736  5734  5737      1
  5737  5734  5738      1
  5738  5735  5736      1
  5739  5735  5739      1
  5740  5735  5740      1
  5741  5736  5741      1
  5742  5741  5742      1
  5743  5741  5744      1
  5744  5741  5745      1
  5745  5742  5743      1
  5746  5742  5746      1
  5747  5742  5747      1
  5748  5743  5748      1
  5749  5748  5749      1
  5750  5748  5751      1
  5751  5748  5752      1
  5752  5749  5750      1
  5753  5749  5753      1
  5754  5749  5754      1
  5755  5750  5755      1
  5756  5755  5756      1
  5757  5755  5758      1
  5758  5755  5759      1
  5759  5756  5757      1
  5760  5756  5760      1
  5761  5756  5761      1
  5762  5757  5762      1
  5763  5762  5763      1
  5764  5762  5765      1
  5765  5762  5766      1
  5766  5763  5764      1
  5767  5763  5767      1
  5768  5763  5768      1
  5769  5764  5769      1
  5770  5769  5770      1
  5771  5769  5772      1
  5772  5769  5773      1
  5773  5770  5771      1
  5774  5770  5774      1
  5775  5770  5775      1
  5776  5771  5776      1
  5777  5776  5777      1
  5778  5776  5779      1
  5779  5776  5780      1
  5780  5777  5778      1
  5781  5777  5781      1
  5782  5777  5782      1
  5783  5778  5783      1
  5784  5783  5784      1
  5785  5783  5786      1
  5786  5783  5787      1
  5787  5784  5785      1
  5788  5784  5788      1
  5789  5784  5789      1
  5790  5785  5790      1
  5791  5790  5791      1
  5792  5790  5793      1
  5793  5790  5794      1
  5794  5791  5792      1
  5795  5791  5795      1
  5796  5791  5796      1
  5797  5792  5797      1
  5798  5797  5798      1
  5799  5797  5800      1
  5800  5797  5801      1
  5801  5798  5799      1
  5802  5798  5802      1
  5803  5798  5803      1
  5804  5799  5804      1
  5805  5804  5805      1
  5806  5804  5807      1
  5807  5804  5808      1
  5808  5805  5806      1
  5809  5805  5809      1
  5810  5805  5810      1
  5811  5806  5811      1
  5812  5811  5812      1
  5813  5811  5814      1
  5814  5811  5815      1
  5815  5812  5813      1
  5816  5812  5816      1
  5817  5812  5817      1
  5818  5813  5818      1
  5819  5818  5819      1
  5820  5818  5821      1
  5821  5818  5822      1
  5822  5819  5820      1
  5823  5819  5823      1
  5824  5819  5824      1
  5825  5820  5825      1
  5826  5825  5826      1
  5827  5825  5828      1
  5828  5825  5829      1
  5829  5826  5827      1
  5830  5826  5830      1
  5831  5826  5831      1
  5832  5827  5832      1
  5833  5832  5833      1
  5834  5832  5835      1
  5835  5832  5836      1
  5836  5833  5834      1
  5837  5833  5837      1
  5838  5833  5838      1
  5839  5834  5839      1
  5840  5839  5840      1
  5841  5839  5842      1
  5842  5839  5843      1
  5843  5840  5841      1
  5844  5840  5844      1
  5845  5840  5845      1
  5846  5841  5846      1
  5847  5846  5847      1
  5848  5846  5849      1
  5849  5846  5850      1
  5850  5847  5848      1
  5851  5847  5851      1
  5852  5847  5852      1
  5853  5848  5853      1
  5854  5853  5854      1
  5855  5853  5856      1
  5856  5853  5857      1
  5857  5854  5855      1
  5858  5854  5858      1
  5859  5854  5859      1
  5860  5855  5860      1
  5861  5860  5861      1
  5862  5860  5863      1
  5863  5860  5864      1
  5864  5861  5862      1
  5865  5861  5865      1
  5866  5861  5866      1
  5867  5862  5867      1
  5868  5867  5868      1
  5869  5867  5870      1
  5870  5867  5871      1
  5871  5868  5869      1
  5872  5868  5872      1
  5873  5868  5873      1
  5874  5869  5874      1
  5875  5874  5875      1
  5876  5874  5877      1
  5877  5874  5878      1
  5878  5875  5876      1
  5879  5875  5879      1
  5880  5875  5880      1
  5881  5876  5881      1
  5882  5881  5882      1
  5883  5881  5884      1
  5884  5881  5885      1
  5885  5882  5883      1
  5886  5882  5886      1
  5887  5882  5887      1
  5888  5883  5888      1
  5889  5888  5889      1
  5890  5888  5891      1
  5891  5888  5892      1
  5892  5889  5890      1
  5893  5889  5893      1
  5894  5889  5894      1
  5895  5890  5895      1
  5896  5895  5896      1
  5897  5895  5898      1
  5898  5895  5899      1
  5899  5896  5897      1
  5900  5896  5900      1
  5901  5896  5901      1
  5902  5897  5902      1
  5903  5902  5903      1
  5904  5902  5905      1
  5905  5902  5906      1
  5906  5903  5904      1
  5907  5903  5907      1
  5908  5903  5908      1
  5909  5904  5909      1
  5910  5909  5910      1
  5911  5909  5912      1
  5912  5909  5913      1
  5913  5910  5911      1
  5914  5910  5914      1
  5915  5910  5915      1
  5916  5911  5916      1
  5917  5916  5917      1
  5918  5916  5919      1
  5919  5916  5920      1
  5920  5917  5918      1
  5921  5917  5921      1
  5922  5917  5922      1
  5923  5918  5923      1
  5924  5923  5924      1
  5925  5923  5926      1
  5926  5923  5927      1
  5927  5924  5925      1
  5928  5924  5928      1
  5929  5924  5929      1
  5930  5925  5930      1
  5931  5930  5931      1
  5932  5930  5933      1
  5933  5930  5934      1
  5934  5931  5932      1
  5935  5931  5935      1
  5936  5931  5936      1
  5937  5932  5937      1
  5938  5937  5938      1
  5939  5937  5940      1
  5940  5937  5941      1
  5941  5938  5939      1
  5942  5938  5942      1
  5943  5938  5943      1
  5944  5939  5944      1
  5945  5944  5945      1
  5946  5944  5947      1
  5947  5944  5948      1
  5948  5945  5946      1
  5949  5945  5949      1
  5950  5945  5950      1
  5951  5946  5951      1
  5952  5951  5952      1
  5953  5951  5954      1
  5954  5951  5955      1
  5955  5952  5953      1
  5956  5952  5956      1
  5957  5952  5957      1
  5958  5953  5958      1
  5959  5958  5959      1
  5960  5958  5961      1
  5961  5958  5962      1
  5962  5959  5960      1
  5963  5959  5963      1
  5964  5959  5964      1
  5965  5960  5965      1
  5966  5965  5966      1
  5967  5965  5968      1
  5968  5965  5969      1
  5969  5966  5967      1
  5970  5966  5970      1
  5971  5966  5971      1
  5972  5967  5972      1
  5973  5972  5973      1
  5974  5972  5975      1
  5975  5972  5976      1
  5976  5973  5974      1
  5977  5973  5977      1
  5978  5973  5978      1
  5979  5974  5979      1
  5980  5979  5980      1
  5981  5979  5982      1
  5982  5979  5983      1
  5983  5980  5981      1
  5984  5980  5984      1
  5985  5980  5985      1
  5986  5981  5986      1
  5987  5986  5987      1
  5988  5986  5989      1
  5989  5986  5990      1
  5990  5987  5988      1
  5991  5987  5991      1
  5992  5987  5992      1
  5993  5988  5993      1
  5994  5993  5994      1
  5995  5993  5996      1
  5996  5993  5997      1
  5997  5994  5995      1
  5998  5994  5998      1
  5999  5994  5999      1
  6000  5995  6000      1
  6001  6000  6001      1
  6002  6000  6003      1
  6003  6000  6004      1
  6004  6001  6002      1
  6005  6001  6005      1
  6006  6001  6006      1
  6007  6002  6007      1
  6008  6007  6008      1
  6009  6007  6010      1
  6010  6007  6011      1
  6011  6008  6009      1
  6012  6008  6012      1
  6013  6008  6013      1
  6014  6009  6014      1
  6015  6014  6015      1
  6016  6014  6017      1
  6017  6014  6018      1
  6018  6015  6016      1
  6019  6015  6019      1
  6020  6015  6020      1
  6021  6016  6021      1
  6022  6021  6022      1
  6023  6021  6024      1
  6024  6021  6025      1
  6025  6022  6023      1
  6026  6022  6026      1
  6027  6022  6027      1
  6028  6023  6028      1
  6029  6028  6029      1
  6030  6028  6031      1
  6031  6028  6032      1
  6032  6029  6030      1
  6033  6029  6033      1
  6034  6029  6034      1
  6035  6030  6035      1
  6036  6035  6036      1
  6037  6035  6038      1
  6038  6035  6039      1
  6039  6036  6037      1
  6040  6036  6040      1
  6041  6036  6041      1
  6042  6037  6042      1
  6043  6042  6043      1
  6044  6042  6045      1
  6045  6042  6046      1
  6046  6043  6044      1
  6047  6043  6047      1
  6048  6043  6048      1
  6049  6044  6049      1
  6050  6049  6050      1
  6051  6049  6052      1
  6052  6049  6053      1
  6053  6050  6051      1
  6054  6050  6054      1
  6055  6050  6055      1
  6056  6051  6056      1
  6057  6056  6057      1
  6058  6056  6059      1
  6059  6056  6060      1
  6060  6057  6058      1
  6061  6057  6061      1
  6062  6057  6062      1
  6063  6058  6063      1
  6064  6063  6064      1
  6065  6063  6066      1
  6066  6063  6067      1
  6067  6064  6065      1
  6068  6064  6068      1
  6069  6064  6069      1
  6070  6065  6070      1
  6071  6070  6071      1
  6072  6070  6073      1
  6073  6070  6074      1
  6074  6071  6072      1
  6075  6071  6075      1
  6076  6071  6076      1
  6077  6072  6077      1
  6078  6077  6078      1
  6079  6077  6080      1
  6080  6077  6081      1
  6081  6078  6079      1
  6082  6078  6082      1
  6083  6078  6083      1
  6084  6079  6084      1
  6085  6084  6085      1
  6086  6084  6087      1
  6087  6084  6088      1
  6088  6085  6086      1
  6089  6085  6089      1
  6090  6085  6090      1
  6091  6086  6091      1
  6092  6091  6092      1
  6093  6091  6094      1
  6094  6091  6095      1
  6095  6092  6093      1
  6096  6092  6096      1
  6097  6092  6097      1
  6098  6093  6098      1
  6099  6098  6099      1
  6100  6098  6101      1
  6101  6098  6102      1
  6102  6099  6100      1
  6103  6099  6103      1
  6104  6099  6104      1
  6105  6100  6105      1
  6106  6105  6106      1
  6107  6105  6108      1
  6108  6105  6109      1
  6109  6106  6107      1
  6110  6106  6110      1
  6111  6106  6111      1
  6112  6107  6112      1
  6113  6112  6113      1
  6114  6112  6115      1
  6115  6112  6116      1
  6116  6113  6114      1
  6117  6113  6117      1
  6118  6113  6118      1
  6119  6114  6119      1
  6120  6119  6120      1
  6121  6119  6122      1
  6122  6119  6123      1
  6123  6120  6121      1
  6124  6120  6124      1
  6125  6120  6125      1
  6126  6121  6126      1
  6127  6126  6127      1
  6128  6126  6129      1
  6129  6126  6130      1
  6130  6127  6128      1
  6131  6127  6131      1
  6132  6127  6132      1
  6133  6128  6133      1
  6134  6133  6134      1
  6135  6133  6136      1
  6136  6133  6137      1
  6137  6134  6135      1
  6138  6134  6138      1
  6139  6134  6139      1
  6140  6135  6140      1
  6141  6140  6141      1
  6142  6140  6143      1
  6143  6140  6144      1
  6144  6141  6142      1
  6145  6141  6145      1
  6146  6141  6146      1
  6147  6142  6147      1
  6148  6147  6148      1
  6149  6147  6150      1
  6150  6147  6151      1
  6151  6148  6149      1
  6152  6148  6152      1
  6153  6148  6153      1
  6154  6149  6154      1
  6155  6154  6155      1
  6156  6154  6157      1
  6157  6154  6158      1
  6158  6155  6156      1
  6159  6155  6159      1
  6160  6155  6160      1
  6161  6156  6161      1
  6162  6161  6162      1
  6163  6161  6164      1
  6164  6161  6165      1
  6165  6162  6163      1
  6166  6162  6166      1
  6167  6162  6167      1
  6168  6163  6168      1
  6169  6168  6169      1
  6170  6168  6171      1
  6171  6168  6172      1
  6172  6169  6170      1
  6173  6169  6173      1
  6174  6169  6174      1
  6175  6170  6175      1
  6176  6175  6176      1
  6177  6175  6178      1
  6178  6175  6179      1
  6179  6176  6177      1
  6180  6176  6180      1
  6181  6176  6181      1
  6182  6177  6182      1
  6183  6182  6183      1
  6184  6182  6185      1
  6185  6182  6186      1
  6186  6183  6184      1
  6187  6183  6187      1
  6188  6183  6188      1
  6189  6184  6189      1
  6190  6189  6190      1
  6191  6189  6192      1
  6192  6189  6193      1
  6193  6190  6191      1
  6194  6190  6194      1
  6195  6190  6195      1
  6196  6191  6196      1
  6197  6196  6197      1
  6198  6196  6199      1
  6199  6196  6200      1
  6200  6197  6198      1
  6201  6197  6201      1
  6202  6197  6202      1
  6203  6198  6203      1
  6204  6203  6204      1
  6205  6203  6206      1
  6206  6203  6207      1
  6207  6204  6205      1
  6208  6204  6208      1
  6209  6204  6209      1
  6210  6205  6210      1
  6211  6210  6211      1
  6212  6210  6213      1
  6213  6210  6214      1
  6214  6211  6212      1
  6215  6211  6215      1
  6216  6211  6216      1
  6217  6212  6217      1
  6218  6217  6218      1
  6219  6217  6220      1
  6220  6217  6221      1
  6221  6218  6219      1
  6222  6218  6222      1
  6223  6218  6223      1
  6224  6219  6224      1
  6225  6224  6225      1
  6226  6224  6227      1
  6227  6224  6228      1
  6228  6225  6226      1
  6229  6225  6229      1
  6230  6225  6230      1
  6231  6226  6231      1
  6232  6231  6232      1
  6233  6231  6234      1
  6234  6231  6235      1
  6235  6232  6233      1
  6236  6232  6236      1
  6237  6232  6237      1
  6238  6233  6238      1
  6239  6238  6239      1
  6240  6238  6241      1
  6241  6238  6242      1
  6242  6239  6240      1
  6243  6239  6243      1
  6244  6239  6244      1
  6245  6240  6245      1
  6246  6245  6246      1
  6247  6245  6248      1
  6248  6245  6249      1
  6249  6246  6247      1
  6250  6246  6250      1
  6251  6246  6251      1
  6252  6247  6252      1
  6253  6252  6253      1
  6254  6252  6255      1
  6255  6252  6256      1
  6256  6253  6254      1
  6257  6253  6257      1
  6258  6253  6258      1
  6259  6254  6259      1
  6260  6259  6260      1
  6261  6259  6262      1
  6262  6259  6263      1
  6263  6260  6261      1
  6264  6260  6264      1
  6265  6260  6265      1
  6266  6261  6266      1
  6267  6266  6267      1
  6268  6266  6269      1
  6269  6266  6270      1
  6270  6267  6268      1
  6271  6267  6271      1
  6272  6267  6272      1
  6273  6268  6273      1
  6274  6273  6274      1
  6275  6273  6276      1
  6276  6273  6277      1
  6277  6274  6275      1
  6278  6274  6278      1
  6279  6274  6279      1
  6280  6275  6280      1
  6281  6280  6281      1
  6282  6280  6283      1
  6283  6280  6284      1
  6284  6281  6282      1
  6285  6281  6285      1
  6286  6281  6286      1
  6287  6282  6287      1
  6288  6287  6288      1
  6289  6287  6290      1
  6290  6287  6291      1
  6291  6288  6289      1
  6292  6288  6292      1
  6293  6288  6293      1
  6294  6289  6294      1
  6295  6294  6295      1
  6296  6294  6297      1
  6297  6294  6298      1
  6298  6295  6296      1
  6299  6295  6299      1
  6300  6295  6300      1
  6301  6296  6301      1
  6302  6301  6302      1
  6303  6301  6304      1
  6304  6301  6305      1
  6305  6302  6303      1
  6306  6302  6306      1
  6307  6302  6307      1
  6308  6303  6308      1
  6309  6308  6309      1
  6310  6308  6311      1
  6311  6308  6312      1
  6312  6309  6310      1
  6313  6309  6313      1
  6314  6309  6314      1
  6315  6310  6315      1
  6316  6315  6316      1
  6317  6315  6318      1
  6318  6315  6319      1
  6319  6316  6317      1
  6320  6316  6320      1
  6321  6316  6321      1
  6322  6317  6322      1
  6323  6322  6323      1
  6324  6322  6325      1
  6325  6322  6326      1
  6326  6323  6324      1
  6327  6323  6327      1
  6328  6323  6328      1
  6329  6324  6329      1
  6330  6329  6330      1
  6331  6329  6332      1
  6332  6329  6333      1
  6333  6330  6331      1
  6334  6330  6334      1
  6335  6330  6335      1
  6336  6331  6336      1
  6337  6336  6337      1
  6338  6336  6339      1
  6339  6336  6340      1
  6340  6337  6338      1
  6341  6337  6341      1
  6342  6337  6342      1
  6343  6338  6343      1
  6344  6343  6344      1
  6345  6343  6346      1
  6346  6343  6347      1
  6347  6344  6345      1
  6348  6344  6348      1
  6349  6344  6349      1
  6350  6345  6350      1
  6351  6350  6351      1
  6352  6350  6353      1
  6353  6350  6354      1
  6354  6351  6352      1
  6355  6351  6355      1
  6356  6351  6356      1
  6357  6352  6357      1
  6358  6357  6358      1
  6359  6357  6360      1
  6360  6357  6361      1
  6361  6358  6359      1
  6362  6358  6362      1
  6363  6358  6363      1
  6364  6359  6364      1
  6365  6364  6365      1
  6366  6364  6367      1
  6367  6364  6368      1
  6368  6365  6366      1
  6369  6365  6369      1
  6370  6365  6370      1
  6371  6366  6371      1
  6372  6371  6372      1
  6373  6371  6374      1
  6374  6371  6375      1
  6375  6372  6373      1
  6376  6372  6376      1
  6377  6372  6377      1
  6378  6373  6378      1
  6379  6378  6379      1
  6380  6378  6381      1
  6381  6378  6382      1
  6382  6379  6380      1
  6383  6379  6383      1
  6384  6379  6384      1
  6385  6380  6385      1
  6386  6385  6386      1
  6387  6385  6388      1
  6388  6385  6389      1
  6389  6386  6387      1
  6390  6386  6390      1
  6391  6386  6391      1
  6392  6387  6392      1
  6393  6392  6393      1
  6394  6392  6395      1
  6395  6392  6396      1
  6396  6393  6394      1
  6397  6393  6397      1
  6398  6393  6398      1
  6399  6394  6399      1
  6400  6399  6400      1
  6401  6399  6402      1
  6402  6399  6403      1
  6403  6400  6401      1
  6404  6400  6404      1
  6405  6400  6405      1
  6406  6401  6406      1
  6407  6406  6407      1
  6408  6406  6409      1
  6409  6406  6410      1
  6410  6407  6408      1
  6411  6407  6411      1
  6412  6407  6412      1
  6413  6408  6413      1
  6414  6413  6414      1
  6415  6413  6416      1
  6416  6413  6417      1
  6417  6414  6415      1
  6418  6414  6418      1
  6419  6414  6419      1
  6420  6415  6420      1
  6421  6420  6421      1
  6422  6420  6423      1
  6423  6420  6424      1
  6424  6421  6422      1
  6425  6421  6425      1
  6426  6421  6426      1
  6427  6422  6427      1
  6428  6427  6428      1
  6429  6427  6430      1
  6430  6427  6431      1
  6431  6428  6429      1
  6432  6428  6432      1
  6433  6428  6433      1
  6434  6429  6434      1
  6435  6434  6435      1
  6436  6434  6437      1
  6437  6434  6438      1
  6438  6435  6436      1
  6439  6435  6439      1
  6440  6435  6440      1
  6441  6436  6441      1
  6442  6441  6442      1
  6443  6441  6444      1
  6444  6441  6445      1
  6445  6442  6443      1
  6446  6442  6446      1
  6447  6442  6447      1
  6448  6443  6448      1
  6449  6448  6449      1
  6450  6448  6451      1
  6451  6448  6452      1
  6452  6449  6450      1
  6453  6449  6453      1
  6454  6449  6454      1
  6455  6450  6455      1
  6456  6455  6456      1
  6457  6455  6458      1
  6458  6455  6459      1
  6459  6456  6457      1
  6460  6456  6460      1
  6461  6456  6461      1
  6462  6457  6462      1
  6463  6462  6463      1
  6464  6462  6465      1
  6465  6462  6466      1
  6466  6463  6464      1
  6467  6463  6467      1
  6468  6463  6468      1
  6469  6464  6469      1
  6470  6469  6470      1
  6471  6469  6472      1
  6472  6469  6473      1
  6473  6470  6471      1
  6474  6470  6474      1
  6475  6470  6475      1
  6476  6471  6476      1
  6477  6476  6477      1
  6478  6476  6479      1
  6479  6476  6480      1
  6480  6477  6478      1
  6481  6477  6481      1
  6482  6477  6482      1
  6483  6478  6483      1
  6484  6483  6484      1
  6485  6483  6486      1
  6486  6483  6487      1
  6487  6484  6485      1
  6488  6484  6488      1
  6489  6484  6489      1
  6490  6485  6490      1
  6491  6490  6491      1
  6492  6490  6493      1
  6493  6490  6494      1
  6494  6491  6492      1
  6495  6491  6495      1
  6496  6491  6496      1
  6497  6492  6497      1
  6498  6497  6498      1
  6499  6497  6500      1
  6500  6497  6501      1
  6501  6498  6499      1
  6502  6498  6502      1
  6503  6498  6503      1
  6504  6499  6504      1
  6505  6504  6505      1
  6506  6504  6507      1
  6507  6504  6508      1
  6508  6505  6506      1
  6509  6505  6509      1
  6510  6505  6510      1
  6511  6506  6511      1
  6512  6511  6512      1
  6513  6511  6514      1
  6514  6511  6515      1
  6515  6512  6513      1
  6516  6512  6516      1
  6517  6512  6517      1
  6518  6513  6518      1
  6519  6518  6519      1
  6520  6518  6521      1
  6521  6518  6522      1
  6522  6519  6520      1
  6523  6519  6523      1
  6524  6519  6524      1
  6525  6520  6525      1
  6526  6525  6526      1
  6527  6525  6528      1
  6528  6525  6529      1
  6529  6526  6527      1
  6530  6526  6530      1
  6531  6526  6531      1
  6532  6527  6532      1
  6533  6532  6533      1
  6534  6532  6535      1
  6535  6532  6536      1
  6536  6533  6534      1
  6537  6533  6537      1
  6538  6533  6538      1
  6539  6534  6539      1
  6540  6539  6540      1
  6541  6539  6542      1
  6542  6539  6543      1
  6543  6540  6541      1
  6544  6540  6544      1
  6545  6540  6545      1
  6546  6541  6546      1
  6547  6546  6547      1
  6548  6546  6549      1
  6549  6546  6550      1
  6550  6547  6548      1
  6551  6547  6551      1
  6552  6547  6552      1
  6553  6548  6553      1
  6554  6553  6554      1
  6555  6553  6556      1
  6556  6553  6557      1
  6557  6554  6555      1
  6558  6554  6558      1
  6559  6554  6559      1
  6560  6555  6560      1
  6561  6560  6561      1
  6562  6560  6563      1
  6563  6560  6564      1
  6564  6561  6562      1
  6565  6561  6565      1
  6566  6561  6566      1
  6567  6562  6567      1
  6568  6567  6568      1
  6569  6567  6570      1
  6570  6567  6571      1
  6571  6568  6569      1
  6572  6568  6572      1
  6573  6568  6573      1
  6574  6569  6574      1
  6575  6574  6575      1
  6576  6574  6577      1
  6577  6574  6578      1
  6578  6575  6576      1
  6579  6575  6579      1
  6580  6575  6580      1
  6581  6576  6581      1
  6582  6581  6582      1
  6583  6581  6584      1
  6584  6581  6585      1
  6585  6582  6583      1
  6586  6582  6586      1
  6587  6582  6587      1
  6588  6583  6588      1
  6589  6588  6589      1
  6590  6588  6591      1
  6591  6588  6592      1
  6592  6589  6590      1
  6593  6589  6593      1
  6594  6589  6594      1
  6595  6590  6595      1
  6596  6595  6596      1
  6597  6595  6598      1
  6598  6595  6599      1
  6599  6596  6597      1
  6600  6596  6600      1
  6601  6596  6601      1
  6602  6597  6602      1
  6603  6602  6603      1
  6604  6602  6605      1
  6605  6602  6606      1
  6606  6603  6604      1
  6607  6603  6607      1
  6608  6603  6608      1
  6609  6604  6609      1
  6610  6609  6610      1
  6611  6609  6612      1
  6612  6609  6613      1
  6613  6610  6611      1
  6614  6610  6614      1
  6615  6610  6615      1
  6616  6611  6616      1
  6617  6616  6617      1
  6618  6616  6619      1
  6619  6616  6620      1
  6620  6617  6618      1
  6621  6617  6621      1
  6622  6617  6622      1
  6623  6618  6623      1
  6624  6623  6624      1
  6625  6623  6626      1
  6626  6623  6627      1
  6627  6624  6625      1
  6628  6624  6628      1
  6629  6624  6629      1
  6630  6625  6630      1
  6631  6630  6631      1
  6632  6630  6633      1
  6633  6630  6634      1
  6634  6631  6632      1
  6635  6631  6635      1
  6636  6631  6636      1
  6637  6632  6637      1
  6638  6637  6638      1
  6639  6637  6640      1
  6640  6637  6641      1
  6641  6638  6639      1
  6642  6638  6642      1
  6643  6638  6643      1
  6644  6639  6644      1
  6645  6644  6645      1
  6646  6644  6647      1
  6647  6644  6648      1
  6648  6645  6646      1
  6649  6645  6649      1
  6650  6645  6650      1
  6651  6646  6651      1
  6652  6651  6652      1
  6653  6651  6654      1
  6654  6651  6655      1
  6655  6652  6653      1
  6656  6652  6656      1
  6657  6652  6657      1
  6658  6653  6658      1
  6659  6658  6659      1
  6660  6658  6661      1
  6661  6658  6662      1
  6662  6659  6660      1
  6663  6659  6663      1
  6664  6659  6664      1
  6665  6660  6665      1
  6666  6665  6666      1
  6667  6665  6668      1
  6668  6665  6669      1
  6669  6666  6667      1
  6670  6666  6670      1
  6671  6666  6671      1
  6672  6667  6672      1
  6673  6672  6673      1
  6674  6672  6675      1
  6675  6672  6676      1
  6676  6673  6674      1
  6677  6673  6677      1
  6678  6673  6678      1
  6679  6674  6679      1
  6680  6679  6680      1
  6681  6679  6682      1
  6682  6679  6683      1
  6683  6680  6681      1
  6684  6680  6684      1
  6685  6680  6685      1
  6686  6681  6686      1
  6687  6686  6687      1
  6688  6686  6689      1
  6689  6686  6690      1
  6690  6687  6688      1
  6691  6687  6691      1
  6692  6687  6692      1
  6693  6688  6693      1
  6694  6693  6694      1
  6695  6693  6696      1
  6696  6693  6697      1
  6697  6694  6695      1
  6698  6694  6698      1
  6699  6694  6699      1
  6700  6695  6700      1
  6701  6700  6701      1
  6702  6700  6703      1
  6703  6700  6704      1
  6704  6701  6702      1
  6705  6701  6705      1
  6706  6701  6706      1
  6707  6702  6707      1
  6708  6707  6708      1
  6709  6707  6710      1
  6710  6707  6711      1
  6711  6708  6709      1
  6712  6708  6712      1
  6713  6708  6713      1
  6714  6709  6714      1
  6715  6714  6715      1
  6716  6714  6717      1
  6717  6714  6718      1
  6718  6715  6716      1
  6719  6715  6719      1
  6720  6715  6720      1
  6721  6716  6721      1
  6722  6721  6722      1
  6723  6721  6724      1
  6724  6721  6725      1
  6725  6722  6723      1
  6726  6722  6726      1
  6727  6722  6727      1
  6728  6723  6728      1
  6729  6728  6729      1
  6730  6728  6731      1
  6731  6728  6732      1
  6732  6729  6730      1
  6733  6729  6733      1
  6734  6729  6734      1
  6735  6730  6735      1
  6736  6735  6736      1
  6737  6735  6738      1
  6738  6735  6739      1
  6739  6736  6737      1
  6740  6736  6740      1
  6741  6736  6741      1
  6742  6737  6742      1
  6743  6742  6743      1
  6744  6742  6745      1
  6745  6742  6746      1
  6746  6743  6744      1
  6747  6743  6747      1
  6748  6743  6748      1
  6749  6744  6749      1
  6750  6749  6750      1
  6751  6749  6752      1
  6752  6749  6753      1
  6753  6750  6751      1
  6754  6750  6754      1
  6755  6750  6755      1
  6756  6751  6756      1
  6757  6756  6757      1
  6758  6756  6759      1
  6759  6756  6760      1
  6760  6757  6758      1
  6761  6757  6761      1
  6762  6757  6762      1
  6763  6758  6763      1
  6764  6763  6764      1
  6765  6763  6766      1
  6766  6763  6767      1
  6767  6764  6765      1
  6768  6764  6768      1
  6769  6764  6769      1
  6770  6765  6770      1
  6771  6770  6771      1
  6772  6770  6773      1
  6773  6770  6774      1
  6774  6771  6772      1
  6775  6771  6775      1
  6776  6771  6776      1
  6777  6772  6777      1
  6778  6777  6778      1
  6779  6777  6780      1
  6780  6777  6781      1
  6781  6778  6779      1
  6782  6778  6782      1
  6783  6778  6783      1
  6784  6779  6784      1
  6785  6784  6785      1
  6786  6784  6787      1
  6787  6784  6788      1
  6788  6785  6786      1
  6789  6785  6789      1
  6790  6785  6790      1
  6791  6786  6791      1
  6792  6791  6792      1
  6793  6791  6794      1
  6794  6791  6795      1
  6795  6792  6793      1
  6796  6792  6796      1
  6797  6792  6797      1
  6798  6793  6798      1
  6799  6798  6799      1
  6800  6798  6801      1
  6801  6798  6802      1
  6802  6799  6800      1
  6803  6799  6803      1
  6804  6799  6804      1
  6805  6800  6805      1
  6806  6805  6806      1
  6807  6805  6808      1
  6808  6805  6809      1
  6809  6806  6807      1
  6810  6806  6810      1
  6811  6806  6811      1
  6812  6807  6812      1
  6813  6812  6813      1
  6814  6812  6815      1
  6815  6812  6816      1
  6816  6813  6814      1
  6817  6813  6817      1
  6818  6813  6818      1
  6819  6814  6819      1
  6820  6819  6820      1
  6821  6819  6822      1
  6822  6819  6823      1
  6823  6820  6821      1
  6824  6820  6824      1
  6825  6820  6825      1
  6826  6821  6826      1
  6827  6826  6827      1
  6828  6826  6829      1
  6829  6826  6830      1
  6830  6827  6828      1
  6831  6827  6831      1
  6832  6827  6832      1
  6833  6828  6833      1
  6834  6833  6834      1
  6835  6833  6836      1
  6836  6833  6837      1
  6837  6834  6835      1
  6838  6834  6838      1
  6839  6834  6839      1
  6840  6835  6840      1
  6841  6840  6841      1
  6842  6840  6843      1
  6843  6840  6844      1
  6844  6841  6842      1
  6845  6841  6845      1
  6846  6841  6846      1
  6847  6842  6847      1
  6848  6847  6848      1
  6849  6847  6850      1
  6850  6847  6851      1
  6851  6848  6849      1
  6852  6848  6852      1
  6853  6848  6853      1
  6854  6849  6854      1
  6855  6854  6855      1
  6856  6854  6857      1
  6857  6854  6858      1
  6858  6855  6856      1
  6859  6855  6859      1
  6860  6855  6860      1
  6861  6856  6861      1
  6862  6861  6862      1
  6863  6861  6864      1
  6864  6861  6865      1
  6865  6862  6863      1
  6866  6862  6866      1
  6867  6862  6867      1
  6868  6863  6868      1
  6869  6868  6869      1
  6870  6868  6871      1
  6871  6868  6872      1
  6872  6869  6870      1
  6873  6869  6873      1
  6874  6869  6874      1
  6875  6870  6875      1
  6876  6875  6876      1
  6877  6875  6878      1
  6878  6875  6879      1
  6879  6876  6877      1
  6880  6876  6880      1
  6881  6876  6881      1
  6882  6877  6882      1
  6883  6882  6883      1
  6884  6882  6885      1
  6885  6882  6886      1
  6886  6883  6884      1
  6887  6883  6887      1
  6888  6883  6888      1
  6889  6884  6889      1
  6890  6889  6890      1
  6891  6889  6892      1
  6892  6889  6893      1
  6893  6890  6891      1
  6894  6890  6894      1
  6895  6890  6895      1
  6896  6891  6896      1
  6897  6896  6897      1
  6898  6896  6899      1
  6899  6896  6900      1
  6900  6897  6898      1
  6901  6897  6901      1
  6902  6897  6902      1
  6903  6898  6903      1
  6904  6903  6904      1
  6905  6903  6906      1
  6906  6903  6907      1
  6907  6904  6905      1
  6908  6904  6908      1
  6909  6904  6909      1
  6910  6905  6910      1
  6911  6910  6911      1
  6912  6910  6913      1
  6913  6910  6914      1
  6914  6911  6912      1
  6915  6911  6915      1
  6916  6911  6916      1
  6917  6912  6917      1
  6918  6917  6918      1
  6919  6917  6920      1
  6920  6917  6921      1
  6921  6918  6919      1
  6922  6918  6922      1
  6923  6918  6923      1
  6924  6919  6924      1
  6925  6924  6925      1
  6926  6924  6927      1
  6927  6924  6928      1
  6928  6925  6926      1
  6929  6925  6929      1
  6930  6925  6930      1
  6931  6926  6931      1
  6932  6931  6932      1
  6933  6931  6934      1
  6934  6931  6935      1
  6935  6932  6933      1
  6936  6932  6936      1
  6937  6932  6937      1
  6938  6933  6938      1
  6939  6938  6939      1
  6940  6938  6941      1
  6941  6938  6942      1
  6942  6939  6940      1
  6943  6939  6943      1
  6944  6939  6944      1
  6945  6940  6945      1
  6946  6945  6946      1
  6947  6945  6948      1
  6948  6945  6949      1
  6949  6946  6947      1
  6950  6946  6950      1
  6951  6946  6951      1
  6952  6947  6952      1
  6953  6952  6953      1
  6954  6952  6955      1
  6955  6952  6956      1
  6956  6953  6954      1
  6957  6953  6957      1
  6958  6953  6958      1
  6959  6954  6959      1
  6960  6959  6960      1
  6961  6959  6962      1
  6962  6959  6963      1
  6963  6960  6961      1
  6964  6960  6964      1
  6965  6960  6965      1
  6966  6961  6966      1
  6967  6966  6967      1
  6968  6966  6969      1
  6969  6966  6970      1
  6970  6967  6968      1
  6971  6967  6971      1
  6972  6967  6972      1
  6973  6968  6973      1
  6974  6973  6974      1
  6975  6973  6976      1
  6976  6973  6977      1
  6977  6974  6975      1
  6978  6974  6978      1
  6979  6974  6979      1
  6980  6975  6980      1
  6981  6980  6981      1
  6982  6980  6983      1
  6983  6980  6984      1
  6984  6981  6982      1
  6985  6981  6985      1
  6986  6981  6986      1
  6987  6982  6987      1
  6988  6987  6988      1
  6989  6987  6990      1
  6990  6987  6991      1
  6991  6988  6989      1
  6992  6988  6992      1
  6993  6988  6993      1
  6994  6989  6994      1
  6995  6994  6995      1
  6996  6994  6997      1
  6997  6994  6998      1
  6998  6995  6996      1
  6999  6995  6999      1
  7000  6995  7000      1
  7001  6996  7001      1
  7002  7001  7002      1
  7003  7001  7004      1
  7004  7001  7005      1
  7005  7002  7003      1
  7006  7002  7006      1
  7007  7002  7007      1
  7008  7003  7008      1
  7009  7008  7009      1
  7010  7008  7011      1
  7011  7008  7012      1
  7012  7009  7010      1
  7013  7009  7013      1
  7014  7009  7014      1
  7015  7010  7015      1
  7016  7015  7016      1
  7017  7015  7018      1
  7018  7015  7019      1
  7019  7016  7017      1
  7020  7016  7020      1
  7021  7016  7021      1
  7022  7017  7022      1
  7023  7022  7023      1
  7024  7022  7025      1
  7025  7022  7026      1
  7026  7023  7024      1
  7027  7023  7027      1
  7028  7023  7028      1
  7029  7024  7029      1
  7030  7029  7030      1
  7031  7029  7032      1
  7032  7029  7033      1
  7033  7030  7031      1
  7034  7030  7034      1
  7035  7030  7035      1
  7036  7031  7036      1
  7037  7036  7037      1
  7038  7036  7039      1
  7039  7036  7040      1
  7040  7037  7038      1
  7041  7037  7041      1
  7042  7037  7042      1
  7043  7038  7043      1
  7044  7043  7044      1
  7045  7043  7046      1
  7046  7043  7047      1
  7047  7044  7045      1
  7048  7044  7048      1
  7049  7044  7049      1
  7050  7045  7050      1
  7051  7050  7051      1
  7052  7050  7053      1
  7053  7050  7054      1
  7054  7051  7052      1
  7055  7051  7055      1
  7056  7051  7056      1
  7057  7052  7057      1
  7058  7057  7058      1
  7059  7057  7060      1
  7060  7057  7061      1
  7061  7058  7059      1
  7062  7058  7062      1
  7063  7058  7063      1
  7064  7059  7064      1
  7065  7064  7065      1
  7066  7064  7067      1
  7067  7064  7068      1
  7068  7065  7066      1
  7069  7065  7069      1
  7070  7065  7070      1
  7071  7066  7071      1
  7072  7071  7072      1
  7073  7071  7074      1
  7074  7071  7075      1
  7075  7072  7073      1
  7076  7072  7076      1
  7077  7072  7077      1
  7078  7073  7078      1
  7079  7078  7079      1
  7080  7078  7081      1
  7081  7078  7082      1
  7082  7079  7080      1
  7083  7079  7083      1
  7084  7079  7084      1
  7085  7080  7085      1
  7086  7085  7086      1
  7087  7085  7088      1
  7088  7085  7089      1
  7089  7086  7087      1
  7090  7086  7090      1
  7091  7086  7091      1
  7092  7087  7092      1
  7093  7092  7093      1
  7094  7092  7095      1
  7095  7092  7096      1
  7096  7093  7094      1
  7097  7093  7097      1
  7098  7093  7098      1
  7099  7094  7099      1
  7100  7099  7100      1
  7101  7099  7102      1
  7102  7099  7103      1
  7103  7100  7101      1
  7104  7100  7104      1
  7105  7100  7105      1
  7106  7101  7106      1
  7107  7106  7107      1
  7108  7106  7109      1
  7109  7106  7110      1
  7110  7107  7108      1
  7111  7107  7111      1
  7112  7107  7112      1
  7113  7108  7113      1
  7114  7113  7114      1
  7115  7113  7116      1
  7116  7113  7117      1
  7117  7114  7115      1
  7118  7114  7118      1
  7119  7114  7119      1
  7120  7115  7120      1
  7121  7120  7121      1
  7122  7120  7123      1
  7123  7120  7124      1
  7124  7121  7122      1
  7125  7121  7125      1
  7126  7121  7126      1
  7127  7122  7127      1
  7128  7127  7128      1
  7129  7127  7130      1
  7130  7127  7131      1
  7131  7128  7129      1
  7132  7128  7132      1
  7133  7128  7133      1
  7134  7129  7134      1
  7135  7134  7135      1
  7136  7134  7137      1
  7137  7134  7138      1
  7138  7135  7136      1
  7139  7135  7139      1
  7140  7135  7140      1
  7141  7136  7141      1
  7142  7141  7142      1
  7143  7141  7144      1
  7144  7141  7145      1
  7145  7142  7143      1
  7146  7142  7146      1
  7147  7142  7147      1
  7148  7143  7148      1
  7149  7148  7149      1
  7150  7148  7151      1
  7151  7148  7152      1
  7152  7149  7150      1
  7153  7149  7153      1
  7154  7149  7154      1
  7155  7150  7155      1
  7156  7155  7156      1
  7157  7155  7158      1
  7158  7155  7159      1
  7159  7156  7157      1
  7160  7156  7160      1
  7161  7156  7161      1
  7162  7157  7162      1
  7163  7162  7163      1
  7164  7162  7165      1
  7165  7162  7166      1
  7166  7163  7164      1
  7167  7163  7167      1
  7168  7163  7168      1
  7169  7164  7169      1
  7170  7169  7170      1
  7171  7169  7172      1
  7172  7169  7173      1
  7173  7170  7171      1
  7174  7170  7174      1
  7175  7170  7175      1
  7176  7171  7176      1
  7177  7176  7177      1
  7178  7176  7179      1
  7179  7176  7180      1
  7180  7177  7178      1
  7181  7177  7181      1
  7182  7177  7182      1
  7183  7178  7183      1
  7184  7183  7184      1
  7185  7183  7186      1
  7186  7183  7187      1
  7187  7184  7185      1
  7188  7184  7188      1
  7189  7184  7189      1
  7190  7185  7190      1
  7191  7190  7191      1
  7192  7190  7193      1
  7193  7190  7194      1
  7194  7191  7192      1
  7195  7191  7195      1
  7196  7191  7196      1
  7197  7192  7197      1
  7198  7197  7198      1
  7199  7197  7200      1
  7200  7197  7201      1
  7201  7198  7199      1
  7202  7198  7202      1
  7203  7198  7203      1
  7204  7199  7204      1
  7205  7204  7205      1
  7206  7204  7207      1
  7207  7204  7208      1
  7208  7205  7206      1
  7209  7205  7209      1
  7210  7205  7210      1
  7211  7206  7211      1
  7212  7211  7212      1
  7213  7211  7214      1
  7214  7211  7215      1
  7215  7212  7213      1
  7216  7212  7216      1
  7217  7212  7217      1
  7218  7213  7218      1
  7219  7218  7219      1
  7220  7218  7221      1
  7221  7218  7222      1
  7222  7219  7220      1
  7223  7219  7223      1
  7224  7219  7224      1
  7225  7220  7225      1
  7226  7225  7226      1
  7227  7225  7228      1
  7228  7225  7229      1
  7229  7226  7227      1
  7230  7226  7230      1
  7231  7226  7231      1
  7232  7227  7232      1
  7233  7232  7233      1
  7234  7232  7235      1
  7235  7232  7236      1
  7236  7233  7234      1
  7237  7233  7237      1
  7238  7233  7238      1
  7239  7234  7239      1
  7240  7239  7240      1
  7241  7239  7242      1
  7242  7239  7243      1
  7243  7240  7241      1
  7244  7240  7244      1
  7245  7240  7245      1
  7246  7241  7246      1
  7247  7246  7247      1
  7248  7246  7249      1
  7249  7246  7250      1
  7250  7247  7248      1
  7251  7247  7251      1
  7252  7247  7252      1
  7253  7248  7253      1
  7254  7253  7254      1
  7255  7253  7256      1
  7256  7253  7257      1
  7257  7254  7255      1
  7258  7254  7258      1
  7259  7254  7259      1
  7260  7255  7260      1
  7261  7260  7261      1
  7262  7260  7263      1
  7263  7260  7264      1
  7264  7261  7262      1
  7265  7261  7265      1
  7266  7261  7266      1
  7267  7262  7267      1
  7268  7267  7268      1
  7269  7267  7270      1
  7270  7267  7271      1
  7271  7268  7269      1
  7272  7268  7272      1
  7273  7268  7273      1
  7274  7269  7274      1
  7275  7274  7275      1
  7276  7274  7277      1
  7277  7274  7278      1
  7278  7275  7276      1
  7279  7275  7279      1
  7280  7275  7280      1
  7281  7276  7281      1
  7282  7281  7282      1
  7283  7281  7284      1
  7284  7281  7285      1
  7285  7282  7283      1
  7286  7282  7286      1
  7287  7282  7287      1
  7288  7283  7288      1
  7289  7288  7289      1
  7290  7288  7291      1
  7291  7288  7292      1
  7292  7289  7290      1
  7293  7289  7293      1
  7294  7289  7294      1
  7295  7290  7295      1
  7296  7295  7296      1
  7297  7295  7298      1
  7298  7295  7299      1
  7299  7296  7297      1
  7300  7296  7300      1
  7301  7296  7301      1
  7302  7297  7302      1
  7303  7302  7303      1
  7304  7302  7305      1
  7305  7302  7306      1
  7306  7303  7304      1
  7307  7303  7307      1
  7308  7303  7308      1
  7309  7304  7309      1
  7310  7309  7310      1
  7311  7309  7312      1
  7312  7309  7313      1
  7313  7310  7311      1
  7314  7310  7314      1
  7315  7310  7315      1
  7316  7311  7316      1
  7317  7316  7317      1
  7318  7316  7319      1
  7319  7316  7320      1
  7320  7317  7318      1
  7321  7317  7321      1
  7322  7317  7322      1
  7323  7318  7323      1
  7324  7323  7324      1
  7325  7323  7326      1
  7326  7323  7327      1
  7327  7324  7325      1
  7328  7324  7328      1
  7329  7324  7329      1
  7330  7325  7330      1
  7331  7330  7331      1
  7332  7330  7333      1
  7333  7330  7334      1
  7334  7331  7332      1
  7335  7331  7335      1
  7336  7331  7336      1
  7337  7332  7337      1
  7338  7337  7338      1
  7339  7337  7340      1
  7340  7337  7341      1
  7341  7338  7339      1
  7342  7338  7342      1
  7343  7338  7343      1
  7344  7339  7344      1
  7345  7344  7345      1
  7346  7344  7347      1
  7347  7344  7348      1
  7348  7345  7346      1
  7349  7345  7349      1
  7350  7345  7350      1
  7351  7346  7351      1
  7352  7351  7352      1
  7353  7351  7354      1
  7354  7351  7355      1
  7355  7352  7353      1
  7356  7352  7356      1
  7357  7352  7357      1
  7358  7353  7358      1
  7359  7358  7359      1
  7360  7358  7361      1
  7361  7358  7362      1
  7362  7359  7360      1
  7363  7359  7363      1
  7364  7359  7364      1
  7365  7360  7365      1
  7366  7365  7366      1
  7367  7365  7368      1
  7368  7365  7369      1
  7369  7366  7367      1
  7370  7366  7370      1
  7371  7366  7371      1
  7372  7367  7372      1
  7373  7372  7373      1
  7374  7372  7375      1
  7375  7372  7376      1
  7376  7373  7374      1
  7377  7373  7377      1
  7378  7373  7378      1
  7379  7374  7379      1
  7380  7379  7380      1
  7381  7379  7382      1
  7382  7379  7383      1
  7383  7380  7381      1
  7384  7380  7384      1
  7385  7380  7385      1
  7386  7381  7386      1
  7387  7386  7387      1
  7388  7386  7389      1
  7389  7386  7390      1
  7390  7387  7388      1
  7391  7387  7391      1
  7392  7387  7392      1
  7393  7388  7393      1
  7394  7393  7394      1
  7395  7393  7396      1
  7396  7393  7397      1
  7397  7394  7395      1
  7398  7394  7398      1
  7399  7394  7399      1
  7400  7395  7400      1
  7401  7400  7401      1
  7402  7400  7403      1
  7403  7400  7404      1
  7404  7401  7402      1
  7405  7401  7405      1
  7406  7401  7406      1
  7407  7402  7407      1
  7408  7407  7408      1
  7409  7407  7410      1
  7410  7407  7411      1
  7411  7408  7409      1
  7412  7408  7412      1
  7413  7408  7413      1
  7414  7409  7414      1
  7415  7414  7415      1
  7416  7414  7417      1
  7417  7414  7418      1
  7418  7415  7416      1
  7419  7415  7419      1
  7420  7415  7420      1
  7421  7416  7421      1
  7422  7421  7422      1
  7423  7421  7424      1
  7424  7421  7425      1
  7425  7422  7423      1
  7426  7422  7426      1
  7427  7422  7427      1
  7428  7423  7428      1
  7429  7428  7429      1
  7430  7428  7431      1
  7431  7428  7432      1
  7432  7429  7430      1
  7433  7429  7433      1
  7434  7429  7434      1
  7435  7430  7435      1
  7436  7435  7436      1
  7437  7435  7438      1
  7438  7435  7439      1
  7439  7436  7437      1
  7440  7436  7440      1
  7441  7436  7441      1
  7442  7437  7442      1
  7443  7442  7443      1
  7444  7442  7445      1
  7445  7442  7446      1
  7446  7443  7444      1
  7447  7443  7447      1
  7448  7443  7448      1
  7449  7444  7449      1
  7450  7449  7450      1
  7451  7449  7452      1
  7452  7449  7453      1
  7453  7450  7451      1
  7454  7450  7454      1
  7455  7450  7455      1
  7456  7451  7456      1
  7457  7456  7457      1
  7458  7456  7459      1
  7459  7456  7460      1
  7460  7457  7458      1
  7461  7457  7461      1
  7462  7457  7462      1
  7463  7458  7463      1
  7464  7463  7464      1
  7465  7463  7466      1
  7466  7463  7467      1
  7467  7464  7465      1
  7468  7464  7468      1
  7469  7464  7469      1
  7470  7465  7470      1
  7471  7470  7471      1
  7472  7470  7473      1
  7473  7470  7474      1
  7474  7471  7472      1
  7475  7471  7475      1
  7476  7471  7476      1
  7477  7472  7477      1
  7478  7477  7478      1
  7479  7477  7480      1
  7480  7477  7481      1
  7481  7478  7479      1
  7482  7478  7482      1
  7483  7478  7483      1
  7484  7479  7484      1
  7485  7484  7485      1
  7486  7484  7487      1
  7487  7484  7488      1
  7488  7485  7486      1
  7489  7485  7489      1
  7490  7485  7490      1
  7491  7486  7491      1
  7492  7491  7492      1
  7493  7491  7494      1
  7494  7491  7495      1
  7495  7492  7493      1
  7496  7492  7496      1
  7497  7492  7497      1
  7498  7493  7498      1
  7499  7498  7499      1
  7500  7498  7501      1
  7501  7498  7502      1
  7502  7499  7500      1
  7503  7499  7503      1
  7504  7499  7504      1
  7505  7500  7505      1
  7506  7505  7506      1
  7507  7505  7508      1
  7508  7505  7509      1
  7509  7506  7507      1
  7510  7506  7510      1
  7511  7506  7511      1
  7512  7507  7512      1
  7513  7512  7513      1
  7514  7512  7515      1
  7515  7512  7516      1
  7516  7513  7514      1
  7517  7513  7517      1
  7518  7513  7518      1
  7519  7514  7519      1
  7520  7519  7520      1
  7521  7519  7522      1
  7522  7519  7523      1
  7523  7520  7521      1
  7524  7520  7524      1
  7525  7520  7525      1
  7526  7521  7526      1
  7527  7526  7527      1
  7528  7526  7529      1
  7529  7526  7530      1
  7530  7527  7528      1
  7531  7527  7531      1
  7532  7527  7532      1
  7533  7528  7533      1
  7534  7533  7534      1
  7535  7533  7536      1
  7536  7533  7537      1
  7537  7534  7535      1
  7538  7534  7538      1
  7539  7534  7539      1
  7540  7535  7540      1
  7541  7540  7541      1
  7542  7540  7543      1
  7543  7540  7544      1
  7544  7541  7542      1
  7545  7541  7545      1
  7546  7541  7546      1
  7547  7542  7547      1
  7548  7547  7548      1
  7549  7547  7550      1
  7550  7547  7551      1
  7551  7548  7549      1
  7552  7548  7552      1
  7553  7548  7553      1
  7554  7549  7554      1
  7555  7554  7555      1
  7556  7554  7557      1
  7557  7554  7558      1
  7558  7555  7556      1
  7559  7555  7559      1
  7560  7555  7560      1
  7561  7556  7561      1
  7562  7561  7562      1
  7563  7561  7564      1
  7564  7561  7565      1
  7565  7562  7563      1
  7566  7562  7566      1
  7567  7562  7567      1
  7568  7563  7568      1
  7569  7568  7569      1
  7570  7568  7571      1
  7571  7568  7572      1
  7572  7569  7570      1
  7573  7569  7573      1
  7574  7569  7574      1
  7575  7570  7575      1
  7576  7575  7576      1
  7577  7575  7578      1
  7578  7575  7579      1
  7579  7576  7577      1
  7580  7576  7580      1
  7581  7576  7581      1
  7582  7577  7582      1
  7583  7582  7583      1
  7584  7582  7585      1
  7585  7582  7586      1
  7586  7583  7584      1
  7587  7583  7587      1
  7588  7583  7588      1
  7589  7584  7589      1
  7590  7589  7590      1
  7591  7589  7592      1
  7592  7589  7593      1
  7593  7590  7591      1
  7594  7590  7594      1
  7595  7590  7595      1
  7596  7591  7596      1
  7597  7596  7597      1
  7598  7596  7599      1
  7599  7596  7600      1
  7600  7597  7598      1
  7601  7597  7601      1
  7602  7597  7602      1
  7603  7598  7603      1
  7604  7603  7604      1
  7605  7603  7606      1
  7606  7603  7607      1
  7607  7604  7605      1
  7608  7604  7608      1
  7609  7604  7609      1
  7610  7605  7610      1
  7611  7610  7611      1
  7612  7610  7613      1
  7613  7610  7614      1
  7614  7611  7612      1
  7615  7611  7615      1
  7616  7611  7616      1
  7617  7612  7617      1
  7618  7617  7618      1
  7619  7617  7620      1
  7620  7617  7621      1
  7621  7618  7619      1
  7622  7618  7622      1
  7623  7618  7623      1
  7624  7619  7624      1
  7625  7624  7625      1
  7626  7624  7627      1
  7627  7624  7628      1
  7628  7625  7626      1
  7629  7625  7629      1
  7630  7625  7630      1
  7631  7626  7631      1
  7632  7631  7632      1
  7633  7631  7634      1
  7634  7631  7635      1
  7635  7632  7633      1
  7636  7632  7636      1
  7637  7632  7637      1
  7638  7633  7638      1
  7639  7638  7639      1
  7640  7638  7641      1
  7641  7638  7642      1
  7642  7639  7640      1
  7643  7639  7643      1
  7644  7639  7644      1
  7645  7640  7645      1
  7646  7645  7646      1
  7647  7645  7648      1
  7648  7645  7649      1
  7649  7646  7647      1
  7650  7646  7650      1
  7651  7646  7651      1
  7652  7647  7652      1
  7653  7652  7653      1
  7654  7652  7655      1
  7655  7652  7656      1
  7656  7653  7654      1
  7657  7653  7657      1
  7658  7653  7658      1
  7659  7654  7659      1
  7660  7659  7660      1
  7661  7659  7662      1
  7662  7659  7663      1
  7663  7660  7661      1
  7664  7660  7664      1
  7665  7660  7665      1
  7666  7661  7666      1
  7667  7666  7667      1
  7668  7666  7669      1
  7669  7666  7670      1
  7670  7667  7668      1
  7671  7667  7671      1
  7672  7667  7672      1
  7673  7668  7673      1
  7674  7673  7674      1
  7675  7673  7676      1
  7676  7673  7677      1
  7677  7674  7675      1
  7678  7674  7678      1
  7679  7674  7679      1
  7680  7675  7680      1
  7681  7680  7681      1
  7682  7680  7683      1
  7683  7680  7684      1
  7684  7681  7682      1
  7685  7681  7685      1
  7686  7681  7686      1
  7687  7682  7687      1
  7688  7687  7688      1
  7689  7687  7690      1
  7690  7687  7691      1
  7691  7688  7689      1
  7692  7688  7692      1
  7693  7688  7693      1
  7694  7689  7694      1
  7695  7694  7695      1
  7696  7694  7697      1
  7697  7694  7698      1
  7698  7695  7696      1
  7699  7695  7699      1
  7700  7695  7700      1
  7701  7696  7701      1
  7702  7701  7702      1
  7703  7701  7704      1
  7704  7701  7705      1
  7705  7702  7703      1
  7706  7702  7706      1
  7707  7702  7707      1
  7708  7703  7708      1
  7709  7708  7709      1
  7710  7708  7711      1
  7711  7708  7712      1
  7712  7709  7710      1
  7713  7709  7713      1
  7714  7709  7714      1
  7715  7710  7715      1
  7716  7715  7716      1
  7717  7715  7718      1
  7718  7715  7719      1
  7719  7716  7717      1
  7720  7716  7720      1
  7721  7716  7721      1
  7722  7717  7722      1
  7723  7722  7723      1
  7724  7722  7725      1
  7725  7722  7726      1
  7726  7723  7724      1
  7727  7723  7727      1
  7728  7723  7728      1
  7729  7724  7729      1
  7730  7729  7730      1
  7731  7729  7732      1
  7732  7729  7733      1
  7733  7730  7731      1
  7734  7730  7734      1
  7735  7730  7735      1
  7736  7731  7736      1
  7737  7736  7737      1
  7738  7736  7739      1
  7739  7736  7740      1
  7740  7737  7738      1
  7741  7737  7741      1
  7742  7737  7742      1
  7743  7738  7743      1
  7744  7743  7744      1
  7745  7743  7746      1
  7746  7743  7747      1
  7747  7744  7745      1
  7748  7744  7748      1
  7749  7744  7749      1
  7750  7745  7750      1
  7751  7750  7751      1
  7752  7750  7753      1
  7753  7750  7754      1
  7754  7751  7752      1
  7755  7751  7755      1
  7756  7751  7756      1
  7757  7752  7757      1
  7758  7757  7758      1
  7759  7757  7760      1
  7760  7757  7761      1
  7761  7758  7759      1
  7762  7758  7762      1
  7763  7758  7763      1
  7764  7759  7764      1
  7765  7764  7765      1
  7766  7764  7767      1
  7767  7764  7768      1
  7768  7765  7766      1
  7769  7765  7769      1
  7770  7765  7770      1
  7771  7766  7771      1
  7772  7771  7772      1
  7773  7771  7774      1
  7774  7771  7775      1
  7775  7772  7773      1
  7776  7772  7776      1
  7777  7772  7777      1
  7778  7773  7778      1
  7779  7778  7779      1
  7780  7778  7781      1
  7781  7778  7782      1
  7782  7779  7780      1
  7783  7779  7783      1
  7784  7779  7784      1
  7785  7780  7785      1
  7786  7785  7786      1
  7787  7785  7788      1
  7788  7785  7789      1
  7789  7786  7787      1
  7790  7786  7790      1
  7791  7786  7791      1
  7792  7787  7792      1
  7793  7792  7793      1
  7794  7792  7795      1
  7795  7792  7796      1
  7796  7793  7794      1
  7797  7793  7797      1
  7798  7793  7798      1
  7799  7794  7799      1
  7800  7799  7800      1
  7801  7799  7802      1
  7802  7799  7803      1
  7803  7800  7801      1
  7804  7800  7804      1
  7805  7800  7805      1
  7806  7801  7806      1
  7807  7806  7807      1
  7808  7806  7809      1
  7809  7806  7810      1
  7810  7807  7808      1
  7811  7807  7811      1
  7812  7807  7812      1
  7813  7808  7813      1
  7814  7813  7814      1
  7815  7813  7816      1
  7816  7813  7817      1
  7817  7814  7815      1
  7818  7814  7818      1
  7819  7814  7819      1
  7820  7815  7820      1
  7821  7820  7821      1
  7822  7820  7823      1
  7823  7820  7824      1
  7824  7821  7822      1
  7825  7821  7825      1
  7826  7821  7826      1
  7827  7822  7827      1
  7828  7827  7828      1
  7829  7827  7830      1
  7830  7827  7831      1
  7831  7828  7829      1
  7832  7828  7832      1
  7833  7828  7833      1
  7834  7829  7834      1
  7835  7834  7835      1
  7836  7834  7837      1
  7837  7834  7838      1
  7838  7835  7836      1
  7839  7835  7839      1
  7840  7835  7840      1
  7841  7836  7841      1
  7842  7841  7842      1
  7843  7841  7844      1
  7844  7841  7845      1
  7845  7842  7843      1
  7846  7842  7846      1
  7847  7842  7847      1
  7848  7843  7848      1
  7849  7848  7849      1
  7850  7848  7851      1
  7851  7848  7852      1
  7852  7849  7850      1
  7853  7849  7853      1
  7854  7849  7854      1
  7855  7850  7855      1
  7856  7855  7856      1
  7857  7855  7858      1
  7858  7855  7859      1
  7859  7856  7857      1
  7860  7856  7860      1
  7861  7856  7861      1
  7862  7857  7862      1
  7863  7862  7863      1
  7864  7862  7865      1
  7865  7862  7866      1
  7866  7863  7864      1
  7867  7863  7867      1
  7868  7863  7868      1
  7869  7864  7869      1
  7870  7869  7870      1
  7871  7869  7872      1
  7872  7869  7873      1
  7873  7870  7871      1
  7874  7870  7874      1
  7875  7870  7875      1
  7876  7871  7876      1
  7877  7876  7877      1
  7878  7876  7879      1
  7879  7876  7880      1
  7880  7877  7878      1
  7881  7877  7881      1
  7882  7877  7882      1
  7883  7878  7883      1
  7884  7883  7884      1
  7885  7883  7886      1
  7886  7883  7887      1
  7887  7884  7885      1
  7888  7884  7888      1
  7889  7884  7889      1
  7890  7885  7890      1
  7891  7890  7891      1
  7892  7890  7893      1
  7893  7890  7894      1
  7894  7891  7892      1
  7895  7891  7895      1
  7896  7891  7896      1
  7897  7892  7897      1
  7898  7897  7898      1
  7899  7897  7900      1
  7900  7897  7901      1
  7901  7898  7899      1
  7902  7898  7902      1
  7903  7898  7903      1
  7904  7899  7904      1
  7905  7904  7905      1
  7906  7904  7907      1
  7907  7904  7908      1
  7908  7905  7906      1
  7909  7905  7909      1
  7910  7905  7910      1
  7911  7906  7911      1
  7912  7911  7912      1
  7913  7911  7914      1
  7914  7911  7915      1
  7915  7912  7913      1
  7916  7912  7916      1
  7917  7912  7917      1
  7918  7913  7918      1
  7919  7918  7919      1
  7920  7918  7921      1
  7921  7918  7922      1
  7922  7919  7920      1
  7923  7919  7923      1
  7924  7919  7924      1
  7925  7920  7925      1
  7926  7925  7926      1
  7927  7925  7928      1
  7928  7925  7929      1
  7929  7926  7927      1
  7930  7926  7930      1
  7931  7926  7931      1
  7932  7927  7932      1
  7933  7932  7933      1
  7934  7932  7935      1
  7935  7932  7936      1
  7936  7933  7934      1
  7937  7933  7937      1
  7938  7933  7938      1
  7939  7934  7939      1
  7940  7939  7940      1
  7941  7939  7942      1
  7942  7939  7943      1
  7943  7940  7941      1
  7944  7940  7944      1
  7945  7940  7945      1
  7946  7941  7946      1
  7947  7946  7947      1
  7948  7946  7949      1
  7949  7946  7950      1
  7950  7947  7948      1
  7951  7947  7951      1
  7952  7947  7952      1
  7953  7948  7953      1
  7954  7953  7954      1
  7955  7953  7956      1
  7956  7953  7957      1
  7957  7954  7955      1
  7958  7954  7958      1
  7959  7954  7959      1
  7960  7955  7960      1
  7961  7960  7961      1
  7962  7960  7963      1
  7963  7960  7964      1
  7964  7961  7962      1
  7965  7961  7965      1
  7966  7961  7966      1
  7967  7962  7967      1
  7968  7967  7968      1
  7969  7967  7970      1
  7970  7967  7971      1
  7971  7968  7969      1
  7972  7968  7972      1
  7973  7968  7973      1
  7974  7969  7974      1
  7975  7974  7975      1
  7976  7974  7977      1
  7977  7974  7978      1
  7978  7975  7976      1
  7979  7975  7979      1
  7980  7975  7980      1
  7981  7976  7981      1
  7982  7981  7982      1
  7983  7981  7984      1
  7984  7981  7985      1
  7985  7982  7983      1
  7986  7982  7986      1
  7987  7982  7987      1
  7988  7983  7988      1
  7989  7988  7989      1
  7990  7988  7991      1
  7991  7988  7992      1
  7992  7989  7990      1
  7993  7989  7993      1
  7994  7989  7994      1
  7995  7990  7995      1
  7996  7995  7996      1
  7997  7995  7998      1
  7998  7995  7999      1
  7999  7996  7997      1
  8000  7996  8000      1
  8001  7996  8001      1
  8002  7997  8002      1
  8003  8002  8003      1
  8004  8002  8005      1
  8005  8002  8006      1
  8006  8003  8004      1
  8007  8003  8007      1
  8008  8003  8008      1
  8009  8004  8009      1
  8010  8009  8010      1
  8011  8009  8012      1
  8012  8009  8013      1
  8013  8010  8011      1
  8014  8010  8014      1
  8015  8010  8015      1
  8016  8011  8016      1
  8017  8016  8017      1
  8018  8016  8019      1
  8019  8016  8020      1
  8020  8017  8018      1
  8021  8017  8021      1
  8022  8017  8022      1
  8023  8018  8023      1
  8024  8023  8024      1
  8025  8023  8026      1
  8026  8023  8027      1
  8027  8024  8025      1
  8028  8024  8028      1
  8029  8024  8029      1
  8030  8025  8030      1
  8031  8030  8031      1
  8032  8030  8033      1
  8033  8030  8034      1
  8034  8031  8032      1
  8035  8031  8035      1
  8036  8031  8036      1
  8037  8032  8037      1
  8038  8037  8038      1
  8039  8037  8040      1
  8040  8037  8041      1
  8041  8038  8039      1
  8042  8038  8042      1
  8043  8038  8043      1
  8044  8039  8044      1
  8045  8044  8045      1
  8046  8044  8047      1
  8047  8044  8048      1
  8048  8045  8046      1
  8049  8045  8049      1
  8050  8045  8050      1
  8051  8046  8051      1
  8052  8051  8052      1
  8053  8051  8054      1
  8054  8051  8055      1
  8055  8052  8053      1
  8056  8052  8056      1
  8057  8052  8057      1
  8058  8053  8058      1
  8059  8058  8059      1
  8060  8058  8061      1
  8061  8058  8062      1
  8062  8059  8060      1
  8063  8059  8063      1
  8064  8059  8064      1
  8065  8060  8065      1
  8066  8065  8066      1
  8067  8065  8068      1
  8068  8065  8069      1
  8069  8066  8067      1
  8070  8066  8070      1
  8071  8066  8071      1
  8072  8067  8072      1
  8073  8072  8073      1
  8074  8072  8075      1
  8075  8072  8076      1
  8076  8073  8074      1
  8077  8073  8077      1
  8078  8073  8078      1
  8079  8074  8079      1
  8080  8079  8080      1
  8081  8079  8082      1
  8082  8079  8083      1
  8083  8080  8081      1
  8084  8080  8084      1
  8085  8080  8085      1
  8086  8081  8086      1
  8087  8086  8087      1
  8088  8086  8089      1
  8089  8086  8090      1
  8090  8087  8088      1
  8091  8087  8091      1
  8092  8087  8092      1
  8093  8088  8093      1
  8094  8093  8094      1
  8095  8093  8096      1
  8096  8093  8097      1
  8097  8094  8095      1
  8098  8094  8098      1
  8099  8094  8099      1
  8100  8095  8100      1
  8101  8100  8101      1
  8102  8100  8103      1
  8103  8100  8104      1
  8104  8101  8102      1
  8105  8101  8105      1
  8106  8101  8106      1
  8107  8102  8107      1
  8108  8107  8108      1
  8109  8107  8110      1
  8110  8107  8111      1
  8111  8108  8109      1
  8112  8108  8112      1
  8113  8108  8113      1
  8114  8109  8114      1
  8115  8114  8115      1
  8116  8114  8117      1
  8117  8114  8118      1
  8118  8115  8116      1
  8119  8115  8119      1
  8120  8115  8120      1
  8121  8116  8121      1
  8122  8121  8122      1
  8123  8121  8124      1
  8124  8121  8125      1
  8125  8122  8123      1
  8126  8122  8126      1
  8127  8122  8127      1
  8128  8123  8128      1
  8129  8128  8129      1
  8130  8128  8131      1
  8131  8128  8132      1
  8132  8129  8130      1
  8133  8129  8133      1
  8134  8129  8134      1
  8135  8130  8135      1
  8136  8135  8136      1
  8137  8135  8138      1
  8138  8135  8139      1
  8139  8136  8137      1
  8140  8136  8140      1
  8141  8136  8141      1
  8142  8137  8142      1
  8143  8142  8143      1
  8144  8142  8145      1
  8145  8142  8146      1
  8146  8143  8144      1
  8147  8143  8147      1
  8148  8143  8148      1
  8149  8144  8149      1
  8150  8149  8150      1
  8151  8149  8152      1
  8152  8149  8153      1
  8153  8150  8151      1
  8154  8150  8154      1
  8155  8150  8155      1
  8156  8151  8156      1
  8157  8156  8157      1
  8158  8156  8159      1
  8159  8156  8160      1
  8160  8157  8158      1
  8161  8157  8161      1
  8162  8157  8162      1
  8163  8158  8163      1
  8164  8163  8164      1
  8165  8163  8166      1
  8166  8163  8167      1
  8167  8164  8165      1
  8168  8164  8168      1
  8169  8164  8169      1
  8170  8165  8170      1
  8171  8170  8171      1
  8172  8170  8173      1
  8173  8170  8174      1
  8174  8171  8172      1
  8175  8171  8175      1
  8176  8171  8176      1
  8177  8172  8177      1
  8178  8177  8178      1
  8179  8177  8180      1
  8180  8177  8181      1
  8181  8178  8179      1
  8182  8178  8182      1
  8183  8178  8183      1
  8184  8179  8184      1
  8185  8184  8185      1
  8186  8184  8187      1
  8187  8184  8188      1
  8188  8185  8186      1
  8189  8185  8189      1
  8190  8185  8190      1
  8191  8186  8191      1
  8192  8191  8192      1
  8193  8191  8194      1
  8194  8191  8195      1
  8195  8192  8193      1
  8196  8192  8196      1
  8197  8192  8197      1
  8198  8193  8198      1
  8199  8198  8199      1
  8200  8198  8201      1
  8201  8198  8202      1
  8202  8199  8200      1
  8203  8199  8203      1
  8204  8199  8204      1
  8205  8200  8205      1
  8206  8205  8206      1
  8207  8205  8208      1
  8208  8205  8209      1
  8209  8206  8207      1
  8210  8206  8210      1
  8211  8206  8211      1
  8212  8207  8212      1
  8213  8212  8213      1
  8214  8212  8215      1
  8215  8212  8216      1
  8216  8213  8214      1
  8217  8213  8217      1
  8218  8213  8218      1
  8219  8214  8219      1
  8220  8219  8220      1
  8221  8219  8222      1
  8222  8219  8223      1
  8223  8220  8221      1
  8224  8220  8224      1
  8225  8220  8225      1
  8226  8221  8226      1
  8227  8226  8227      1
  8228  8226  8229      1
  8229  8226  8230      1
  8230  8227  8228      1
  8231  8227  8231      1
  8232  8227  8232      1
  8233  8228  8233      1
  8234  8233  8234      1
  8235  8233  8236      1
  8236  8233  8237      1
  8237  8234  8235      1
  8238  8234  8238      1
  8239  8234  8239      1
  8240  8235  8240      1
  8241  8240  8241      1
  8242  8240  8243      1
  8243  8240  8244      1
  8244  8241  8242      1
  8245  8241  8245      1
  8246  8241  8246      1
  8247  8242  8247      1
  8248  8247  8248      1
  8249  8247  8250      1
  8250  8247  8251      1
  8251  8248  8249      1
  8252  8248  8252      1
  8253  8248  8253      1
  8254  8249  8254      1
  8255  8254  8255      1
  8256  8254  8257      1
  8257  8254  8258      1
  8258  8255  8256      1
  8259  8255  8259      1
  8260  8255  8260      1
  8261  8256  8261      1
  8262  8261  8262      1
  8263  8261  8264      1
  8264  8261  8265      1
  8265  8262  8263      1
  8266  8262  8266      1
  8267  8262  8267      1
  8268  8263  8268      1
  8269  8268  8269      1
  8270  8268  8271      1
  8271  8268  8272      1
  8272  8269  8270      1
  8273  8269  8273      1
  8274  8269  8274      1
  8275  8270  8275      1
  8276  8275  8276      1
  8277  8275  8278      1
  8278  8275  8279      1
  8279  8276  8277      1
  8280  8276  8280      1
  8281  8276  8281      1
  8282  8277  8282      1
  8283  8282  8283      1
  8284  8282  8285      1
  8285  8282  8286      1
  8286  8283  8284      1
  8287  8283  8287      1
  8288  8283  8288      1
  8289  8284  8289      1
  8290  8289  8290      1
  8291  8289  8292      1
  8292  8289  8293      1
  8293  8290  8291      1
  8294  8290  8294      1
  8295  8290  8295      1
  8296  8291  8296      1
  8297  8296  8297      1
  8298  8296  8299      1
  8299  8296  8300      1
  8300  8297  8298      1
  8301  8297  8301      1
  8302  8297  8302      1
  8303  8298  8303      1
  8304  8303  8304      1
  8305  8303  8306      1
  8306  8303  8307      1
  8307  8304  8305      1
  8308  8304  8308      1
  8309  8304  8309      1
  8310  8305  8310      1
  8311  8310  8311      1
  8312  8310  8313      1
  8313  8310  8314      1
  8314  8311  8312      1
  8315  8311  8315      1
  8316  8311  8316      1
  8317  8312  8317      1
  8318  8317  8318      1
  8319  8317  8320      1
  8320  8317  8321      1
  8321  8318  8319      1
  8322  8318  8322      1
  8323  8318  8323      1
  8324  8319  8324      1
  8325  8324  8325      1
  8326  8324  8327      1
  8327  8324  8328      1
  8328  8325  8326      1
  8329  8325  8329      1
  8330  8325  8330      1
  8331  8326  8331      1
  8332  8331  8332      1
  8333  8331  8334      1
  8334  8331  8335      1
  8335  8332  8333      1
  8336  8332  8336      1
  8337  8332  8337      1
  8338  8333  8338      1
  8339  8338  8339      1
  8340  8338  8341      1
  8341  8338  8342      1
  8342  8339  8340      1
  8343  8339  8343      1
  8344  8339  8344      1
  8345  8340  8345      1
  8346  8345  8346      1
  8347  8345  8348      1
  8348  8345  8349      1
  8349  8346  8347      1
  8350  8346  8350      1
  8351  8346  8351      1
  8352  8347  8352      1
  8353  8352  8353      1
  8354  8352  8355      1
  8355  8352  8356      1
  8356  8353  8354      1
  8357  8353  8357      1
  8358  8353  8358      1
  8359  8354  8359      1
  8360  8359  8360      1
  8361  8359  8362      1
  8362  8359  8363      1
  8363  8360  8361      1
  8364  8360  8364      1
  8365  8360  8365      1
  8366  8361  8366      1
  8367  8366  8367      1
  8368  8366  8369      1
  8369  8366  8370      1
  8370  8367  8368      1
  8371  8367  8371      1
  8372  8367  8372      1
  8373  8368  8373      1
  8374  8373  8374      1
  8375  8373  8376      1
  8376  8373  8377      1
  8377  8374  8375      1
  8378  8374  8378      1
  8379  8374  8379      1
  8380  8375  8380      1
  8381  8380  8381      1
  8382  8380  8383      1
  8383  8380  8384      1
  8384  8381  8382      1
  8385  8381  8385      1
  8386  8381  8386      1
  8387  8382  8387      1
  8388  8387  8388      1
  8389  8387  8390      1
  8390  8387  8391      1
  8391  8388  8389      1
  8392  8388  8392      1
  8393  8388  8393      1
  8394  8389  8394      1
  8395  8394  8395      1
  8396  8394  8397      1
  8397  8394  8398      1
  8398  8395  8396      1
  8399  8395  8399      1
  8400  8395  8400      1
  8401  8396  8401      1
  8402  8401  8402      1
  8403  8401  8404      1
  8404  8401  8405      1
  8405  8402  8403      1
  8406  8402  8406      1
  8407  8402  8407      1
  8408  8403  8408      1
  8409  8408  8409      1
  8410  8408  8411      1
  8411  8408  8412      1
  8412  8409  8410      1
  8413  8409  8413      1
  8414  8409  8414      1
  8415  8410  8415      1
  8416  8415  8416      1
  8417  8415  8418      1
  8418  8415  8419      1
  8419  8416  8417      1
  8420  8416  8420      1
  8421  8416  8421      1
  8422  8417  8422      1
  8423  8422  8423      1
  8424  8422  8425      1
  8425  8422  8426      1
  8426  8423  8424      1
  8427  8423  8427      1
  8428  8423  8428      1
  8429  8424  8429      1
  8430  8429  8430      1
  8431  8429  8432      1
  8432  8429  8433      1
  8433  8430  8431      1
  8434  8430  8434      1
  8435  8430  8435      1
  8436  8431  8436      1
  8437  8436  8437      1
  8438  8436  8439      1
  8439  8436  8440      1
  8440  8437  8438      1
  8441  8437  8441      1
  8442  8437  8442      1
  8443  8438  8443      1
  8444  8443  8444      1
  8445  8443  8446      1
  8446  8443  8447      1
  8447  8444  8445      1
  8448  8444  8448      1
  8449  8444  8449      1
  8450  8445  8450      1
  8451  8450  8451      1
  8452  8450  8453      1
  8453  8450  8454      1
  8454  8451  8452      1
  8455  8451  8455      1
  8456  8451  8456      1
  8457  8452  8457      1
  8458  8457  8458      1
  8459  8457  8460      1
  8460  8457  8461      1
  8461  8458  8459      1
  8462  8458  8462      1
  8463  8458  8463      1
  8464  8459  8464      1
  8465  8464  8465      1
  8466  8464  8467      1
  8467  8464  8468      1
  8468  8465  8466      1
  8469  8465  8469      1
  8470  8465  8470      1
  8471  8466  8471      1
  8472  8471  8472      1
  8473  8471  8474      1
  8474  8471  8475      1
  8475  8472  8473      1
  8476  8472  8476      1
  8477  8472  8477      1
  8478  8473  8478      1
  8479  8478  8479      1
  8480  8478  8481      1
  8481  8478  8482      1
  8482  8479  8480      1
  8483  8479  8483      1
  8484  8479  8484      1
  8485  8480  8485      1
  8486  8485  8486      1
  8487  8485  8488      1
  8488  8485  8489      1
  8489  8486  8487      1
  8490  8486  8490      1
  8491  8486  8491      1
  8492  8487  8492      1
  8493  8492  8493      1
  8494  8492  8495      1
  8495  8492  8496      1
  8496  8493  8494      1
  8497  8493  8497      1
  8498  8493  8498      1
  8499  8494  8499      1
  8500  8499  8500      1
  8501  8499  8502      1
  8502  8499  8503      1
  8503  8500  8501      1
  8504  8500  8504      1
  8505  8500  8505      1
  8506  8501  8506      1
  8507  8506  8507      1
  8508  8506  8509      1
  8509  8506  8510      1
  8510  8507  8508      1
  8511  8507  8511      1
  8512  8507  8512      1
  8513  8508  8513      1
  8514  8513  8514      1
  8515  8513  8516      1
  8516  8513  8517      1
  8517  8514  8515      1
  8518  8514  8518      1
  8519  8514  8519      1
  8520  8515  8520      1
  8521  8520  8521      1
  8522  8520  8523      1
  8523  8520  8524      1
  8524  8521  8522      1
  8525  8521  8525      1
  8526  8521  8526      1
  8527  8522  8527      1
  8528  8527  8528      1
  8529  8527  8530      1
  8530  8527  8531      1
  8531  8528  8529      1
  8532  8528  8532      1
  8533  8528  8533      1
  8534  8529  8534      1
  8535  8534  8535      1
  8536  8534  8537      1
  8537  8534  8538      1
  8538  8535  8536      1
  8539  8535  8539      1
  8540  8535  8540      1
  8541  8536  8541      1
  8542  8541  8542      1
  8543  8541  8544      1
  8544  8541  8545      1
  8545  8542  8543      1
  8546  8542  8546      1
  8547  8542  8547      1
  8548  8543  8548      1
  8549  8548  8549      1
  8550  8548  8551      1
  8551  8548  8552      1
  8552  8549  8550      1
  8553  8549  8553      1
  8554  8549  8554      1
  8555  8550  8555      1
  8556  8555  8556      1
  8557  8555  8558      1
  8558  8555  8559      1
  8559  8556  8557      1
  8560  8556  8560      1
  8561  8556  8561      1
  8562  8557  8562      1
  8563  8562  8563      1
  8564  8562  8565      1
  8565  8562  8566      1
  8566  8563  8564      1
  8567  8563  8567      1
  8568  8563  8568      1
  8569  8564  8569      1
  8570  8569  8570      1
  8571  8569  8572      1
  8572  8569  8573      1
  8573  8570  8571      1
  8574  8570  8574      1
  8575  8570  8575      1
  8576  8571  8576      1
  8577  8576  8577      1
  8578  8576  8579      1
  8579  8576  8580      1
  8580  8577  8578      1
  8581  8577  8581      1
  8582  8577  8582      1
  8583  8578  8583      1
  8584  8583  8584      1
  8585  8583  8586      1
  8586  8583  8587      1
  8587  8584  8585      1
  8588  8584  8588      1
  8589  8584  8589      1
  8590  8585  8590      1
  8591  8590  8591      1
  8592  8590  8593      1
  8593  8590  8594      1
  8594  8591  8592      1
  8595  8591  8595      1
  8596  8591  8596      1
  8597  8592  8597      1
  8598  8597  8598      1
  8599  8597  8600      1
  8600  8597  8601      1
  8601  8598  8599      1
  8602  8598  8602      1
  8603  8598  8603      1
  8604  8599  8604      1
  8605  8604  8605      1
  8606  8604  8607      1
  8607  8604  8608      1
  8608  8605  8606      1
  8609  8605  8609      1
  8610  8605  8610      1
  8611  8606  8611      1
  8612  8611  8612      1
  8613  8611  8614      1
  8614  8611  8615      1
  8615  8612  8613      1
  8616  8612  8616      1
  8617  8612  8617      1
  8618  8613  8618      1
  8619  8618  8619      1
  8620  8618  8621      1
  8621  8618  8622      1
  8622  8619  8620      1
  8623  8619  8623      1
  8624  8619  8624      1
  8625  8620  8625      1
  8626  8625  8626      1
  8627  8625  8628      1
  8628  8625  8629      1
  8629  8626  8627      1
  8630  8626  8630      1
  8631  8626  8631      1
  8632  8627  8632      1
  8633  8632  8633      1
  8634  8632  8635      1
  8635  8632  8636      1
  8636  8633  8634      1
  8637  8633  8637      1
  8638  8633  8638      1
  8639  8634  8639      1
  8640  8639  8640      1
  8641  8639  8642      1
  8642  8639  8643      1
  8643  8640  8641      1
  8644  8640  8644      1
  8645  8640  8645      1
  8646  8641  8646      1
  8647  8646  8647      1
  8648  8646  8649      1
  8649  8646  8650      1
  8650  8647  8648      1
  8651  8647  8651      1
  8652  8647  8652      1
  8653  8648  8653      1
  8654  8653  8654      1
  8655  8653  8656      1
  8656  8653  8657      1
  8657  8654  8655      1
  8658  8654  8658      1
  8659  8654  8659      1
  8660  8655  8660      1
  8661  8660  8661      1
  8662  8660  8663      1
  8663  8660  8664      1
  8664  8661  8662      1
  8665  8661  8665      1
  8666  8661  8666      1
  8667  8662  8667      1
  8668  8667  8668      1
  8669  8667  8670      1
  8670  8667  8671      1
  8671  8668  8669      1
  8672  8668  8672      1
  8673  8668  8673      1
  8674  8669  8674      1
  8675  8674  8675      1
  8676  8674  8677      1
  8677  8674  8678      1
  8678  8675  8676      1
  8679  8675  8679      1
  8680  8675  8680      1
  8681  8676  8681      1
  8682  8681  8682      1
  8683  8681  8684      1
  8684  8681  8685      1
  8685  8682  8683      1
  8686  8682  8686      1
  8687  8682  8687      1
  8688  8683  8688      1
  8689  8688  8689      1
  8690  8688  8691      1
  8691  8688  8692      1
  8692  8689  8690      1
  8693  8689  8693      1
  8694  8689  8694      1
  8695  8690  8695      1
  8696  8695  8696      1
  8697  8695  8698      1
  8698  8695  8699      1
  8699  8696  8697      1
  8700  8696  8700      1
  8701  8696  8701      1
  8702  8697  8702      1
  8703  8702  8703      1
  8704  8702  8705      1
  8705  8702  8706      1
  8706  8703  8704      1
  8707  8703  8707      1
  8708  8703  8708      1
  8709  8704  8709      1
  8710  8709  8710      1
  8711  8709  8712      1
  8712  8709  8713      1
  8713  8710  8711      1
  8714  8710  8714      1
  8715  8710  8715      1
  8716  8711  8716      1
  8717  8716  8717      1
  8718  8716  8719      1
  8719  8716  8720      1
  8720  8717  8718      1
  8721  8717  8721      1
  8722  8717  8722      1
  8723  8718  8723      1
  8724  8723  8724      1
  8725  8723  8726      1
  8726  8723  8727      1
  8727  8724  8725      1
  8728  8724  8728      1
  8729  8724  8729      1
  8730  8725  8730      1
  8731  8730  8731      1
  8732  8730  8733      1
  8733  8730  8734      1
  8734  8731  8732      1
  8735  8731  8735      1
  8736  8731  8736      1
  8737  8732  8737      1
  8738  8737  8738      1
  8739  8737  8740      1
  8740  8737  8741      1
  8741  8738  8739      1
  8742  8738  8742      1
  8743  8738  8743      1
  8744  8739  8744      1
  8745  8744  8745      1
  8746  8744  8747      1
  8747  8744  8748      1
  8748  8745  8746      1
  8749  8745  8749      1
  8750  8745  8750      1
  8751  8746  8751      1
  8752  8751  8752      1
  8753  8751  8754      1
  8754  8751  8755      1
  8755  8752  8753      1
  8756  8752  8756      1
  8757  8752  8757      1
  8758  8753  8758      1
  8759  8758  8759      1
  8760  8758  8761      1
  8761  8758  8762      1
  8762  8759  8760      1
  8763  8759  8763      1
  8764  8759  8764      1
  8765  8760  8765      1
  8766  8765  8766      1
  8767  8765  8768      1
  8768  8765  8769      1
  8769  8766  8767      1
  8770  8766  8770      1
  8771  8766  8771      1
  8772  8767  8772      1
  8773  8772  8773      1
  8774  8772  8775      1
  8775  8772  8776      1
  8776  8773  8774      1
  8777  8773  8777      1
  8778  8773  8778      1
  8779  8774  8779      1
  8780  8779  8780      1
  8781  8779  8782      1
  8782  8779  8783      1
  8783  8780  8781      1
  8784  8780  8784      1
  8785  8780  8785      1
  8786  8781  8786      1
  8787  8786  8787      1
  8788  8786  8789      1
  8789  8786  8790      1
  8790  8787  8788      1
  8791  8787  8791      1
  8792  8787  8792      1
  8793  8788  8793      1
  8794  8793  8794      1
  8795  8793  8796      1
  8796  8793  8797      1
  8797  8794  8795      1
  8798  8794  8798      1
  8799  8794  8799      1
  8800  8795  8800      1
  8801  8800  8801      1
  8802  8800  8803      1
  8803  8800  8804      1
  8804  8801  8802      1
  8805  8801  8805      1
  8806  8801  8806      1
  8807  8802  8807      1
  8808  8807  8808      1
  8809  8807  8810      1
  8810  8807  8811      1
  8811  8808  8809      1
  8812  8808  8812      1
  8813  8808  8813      1
  8814  8809  8814      1
  8815  8814  8815      1
  8816  8814  8817      1
  8817  8814  8818      1
  8818  8815  8816      1
  8819  8815  8819      1
  8820  8815  8820      1
  8821  8816  8821      1
  8822  8821  8822      1
  8823  8821  8824      1
  8824  8821  8825      1
  8825  8822  8823      1
  8826  8822  8826      1
  8827  8822  8827      1
  8828  8823  8828      1
  8829  8828  8829      1
  8830  8828  8831      1
  8831  8828  8832      1
  8832  8829  8830      1
  8833  8829  8833      1
  8834  8829  8834      1
  8835  8830  8835      1
  8836  8835  8836      1
  8837  8835  8838      1
  8838  8835  8839      1
  8839  8836  8837      1
  8840  8836  8840      1
  8841  8836  8841      1
  8842  8837  8842      1
  8843  8842  8843      1
  8844  8842  8845      1
  8845  8842  8846      1
  8846  8843  8844      1
  8847  8843  8847      1
  8848  8843  8848      1
  8849  8844  8849      1
  8850  8849  8850      1
  8851  8849  8852      1
  8852  8849  8853      1
  8853  8850  8851      1
  8854  8850  8854      1
  8855  8850  8855      1
  8856  8851  8856      1
  8857  8856  8857      1
  8858  8856  8859      1
  8859  8856  8860      1
  8860  8857  8858      1
  8861  8857  8861      1
  8862  8857  8862      1
  8863  8858  8863      1
  8864  8863  8864      1
  8865  8863  8866      1
  8866  8863  8867      1
  8867  8864  8865      1
  8868  8864  8868      1
  8869  8864  8869      1
  8870  8865  8870      1
  8871  8870  8871      1
  8872  8870  8873      1
  8873  8870  8874      1
  8874  8871  8872      1
  8875  8871  8875      1
  8876  8871  8876      1
  8877  8872  8877      1
  8878  8877  8878      1
  8879  8877  8880      1
  8880  8877  8881      1
  8881  8878  8879      1
  8882  8878  8882      1
  8883  8878  8883      1
  8884  8879  8884      1
  8885  8884  8885      1
  8886  8884  8887      1
  8887  8884  8888      1
  8888  8885  8886      1
  8889  8885  8889      1
  8890  8885  8890      1
  8891  8886  8891      1
  8892  8891  8892      1
  8893  8891  8894      1
  8894  8891  8895      1
  8895  8892  8893      1
  8896  8892  8896      1
  8897  8892  8897      1
  8898  8893  8898      1
  8899  8898  8899      1
  8900  8898  8901      1
  8901  8898  8902      1
  8902  8899  8900      1
  8903  8899  8903      1
  8904  8899  8904      1
  8905  8900  8905      1
  8906  8905  8906      1
  8907  8905  8908      1
  8908  8905  8909      1
  8909  8906  8907      1
  8910  8906  8910      1
  8911  8906  8911      1
  8912  8907  8912      1
  8913  8912  8913      1
  8914  8912  8915      1
  8915  8912  8916      1
  8916  8913  8914      1
  8917  8913  8917      1
  8918  8913  8918      1
  8919  8914  8919      1
  8920  8919  8920      1
  8921  8919  8922      1
  8922  8919  8923      1
  8923  8920  8921      1
  8924  8920  8924      1
  8925  8920  8925      1
  8926  8921  8926      1
  8927  8926  8927      1
  8928  8926  8929      1
  8929  8926  8930      1
  8930  8927  8928      1
  8931  8927  8931      1
  8932  8927  8932      1
  8933  8928  8933      1
  8934  8933  8934      1
  8935  8933  8936      1
  8936  8933  8937      1
  8937  8934  8935      1
  8938  8934  8938      1
  8939  8934  8939      1
  8940  8935  8940      1
  8941  8940  8941      1
  8942  8940  8943      1
  8943  8940  8944      1
  8944  8941  8942      1
  8945  8941  8945      1
  8946  8941  8946      1
  8947  8942  8947      1
  8948  8947  8948      1
  8949  8947  8950      1
  8950  8947  8951      1
  8951  8948  8949      1
  8952  8948  8952      1
  8953  8948  8953      1
  8954  8949  8954      1
  8955  8954  8955      1
  8956  8954  8957      1
  8957  8954  8958      1
  8958  8955  8956      1
  8959  8955  8959      1
  8960  8955  8960      1
  8961  8956  8961      1
  8962  8961  8962      1
  8963  8961  8964      1
  8964  8961  8965      1
  8965  8962  8963      1
  8966  8962  8966      1
  8967  8962  8967      1
  8968  8963  8968      1
  8969  8968  8969      1
  8970  8968  8971      1
  8971  8968  8972      1
  8972  8969  8970      1
  8973  8969  8973      1
  8974  8969  8974      1
  8975  8970  8975      1
  8976  8975  8976      1
  8977  8975  8978      1
  8978  8975  8979      1
  8979  8976  8977      1
  8980  8976  8980      1
  8981  8976  8981      1
  8982  8977  8982      1
  8983  8982  8983      1
  8984  8982  8985      1
  8985  8982  8986      1
  8986  8983  8984      1
  8987  8983  8987      1
  8988  8983  8988      1
  8989  8984  8989      1
  8990  8989  8990      1
  8991  8989  8992      1
  8992  8989  8993      1
  8993  8990  8991      1
  8994  8990  8994      1
  8995  8990  8995      1
  8996  8991  8996      1
  8997  8996  8997      1
  8998  8996  8999      1
  8999  8996  9000      1
  9000  8997  8998      1
  9001  8997  9001      1
  9002  8997  9002      1
  9003  8998  9003      1
  9004  9003  9004      1
  9005  9003  9006      1
  9006  9003  9007      1
  9007  9004  9005      1
  9008  9004  9008      1
  9009  9004  9009      1
  9010  9005  9010      1
  9011  9010  9011      1
  9012  9010  9013      1
  9013  9010  9014      1
  9014  9011  9012      1
  9015  9011  9015      1
  9016  9011  9016      1
  9017  9012  9017      1
  9018  9017  9018      1
  9019  9017  9020      1
  9020  9017  9021      1
  9021  9018  9019      1
  9022  9018  9022      1
  9023  9018  9023      1
  9024  9019  9024      1
  9025  9024  9025      1
  9026  9024  9027      1
  9027  9024  9028      1
  9028  9025  9026      1
  9029  9025  9029      1
  9030  9025  9030      1
  9031  9026  9031      1
  9032  9031  9032      1
  9033  9031  9034      1
  9034  9031  9035      1
  9035  9032  9033      1
  9036  9032  9036      1
  9037  9032  9037      1
  9038  9033  9038      1
  9039  9038  9039      1
  9040  9038  9041      1
  9041  9038  9042      1
  9042  9039  9040      1
  9043  9039  9043      1
  9044  9039  9044      1
  9045  9040  9045      1
  9046  9045  9046      1
  9047  9045  9048      1
  9048  9045  9049      1
  9049  9046  9047      1
  9050  9046  9050      1
  9051  9046  9051      1
  9052  9047  9052      1
  9053  9052  9053      1
  9054  9052  9055      1
  9055  9052  9056      1
  9056  9053  9054      1
  9057  9053  9057      1
  9058  9053  9058      1
  9059  9054  9059      1
  9060  9059  9060      1
  9061  9059  9062      1
  9062  9059  9063      1
  9063  9060  9061      1
  9064  9060  9064      1
  9065  9060  9065      1
  9066  9061  9066      1
  9067  9066  9067      1
  9068  9066  9069      1
  9069  9066  9070      1
  9070  9067  9068      1
  9071  9067  9071      1
  9072  9067  9072      1
  9073  9068  9073      1
  9074  9073  9074      1
  9075  9073  9076      1
  9076  9073  9077      1
  9077  9074  9075      1
  9078  9074  9078      1
  9079  9074  9079      1
  9080  9075  9080      1
  9081  9080  9081      1
  9082  9080  9083      1
  9083  9080  9084      1
  9084  9081  9082      1
  9085  9081  9085      1
  9086  9081  9086      1
  9087  9082  9087      1
  9088  9087  9088      1
  9089  9087  9090      1
  9090  9087  9091      1
  9091  9088  9089      1
  9092  9088  9092      1
  9093  9088  9093      1
  9094  9089  9094      1
  9095  9094  9095      1
  9096  9094  9097      1
  9097  9094  9098      1
  9098  9095  9096      1
  9099  9095  9099      1
  9100  9095  9100      1
  9101  9096  9101      1
  9102  9101  9102      1
  9103  9101  9104      1
  9104  9101  9105      1
  9105  9102  9103      1
  9106  9102  9106      1
  9107  9102  9107      1
  9108  9103  9108      1
  9109  9108  9109      1
  9110  9108  9111      1
  9111  9108  9112      1
  9112  9109  9110      1
  9113  9109  9113      1
  9114  9109  9114      1
  9115  9110  9115      1
  9116  9115  9116      1
  9117  9115  9118      1
  9118  9115  9119      1
  9119  9116  9117      1
  9120  9116  9120      1
  9121  9116  9121      1
  9122  9117  9122      1
  9123  9122  9123      1
  9124  9122  9125      1
  9125  9122  9126      1
  9126  9123  9124      1
  9127  9123  9127      1
  9128  9123  9128      1
  9129  9124  9129      1
  9130  9129  9130      1
  9131  9129  9132      1
  9132  9129  9133      1
  9133  9130  9131      1
  9134  9130  9134      1
  9135  9130  9135      1
  9136  9131  9136      1
  9137  9136  9137      1
  9138  9136  9139      1
  9139  9136  9140      1
  9140  9137  9138      1
  9141  9137  9141      1
  9142  9137  9142      1
  9143  9138  9143      1
  9144  9143  9144      1
  9145  9143  9146      1
  9146  9143  9147      1
  9147  9144  9145      1
  9148  9144  9148      1
  9149  9144  9149      1
  9150  9145  9150      1
  9151  9150  9151      1
  9152  9150  9153      1
  9153  9150  9154      1
  9154  9151  9152      1
  9155  9151  9155      1
  9156  9151  9156      1
  9157  9152  9157      1
  9158  9157  9158      1
  9159  9157  9160      1
  9160  9157  9161      1
  9161  9158  9159      1
  9162  9158  9162      1
  9163  9158  9163      1
  9164  9159  9164      1
  9165  9164  9165      1
  9166  9164  9167      1
  9167  9164  9168      1
  9168  9165  9166      1
  9169  9165  9169      1
  9170  9165  9170      1
  9171  9166  9171      1
  9172  9171  9172      1
  9173  9171  9174      1
  9174  9171  9175      1
  9175  9172  9173      1
  9176  9172  9176      1
  9177  9172  9177      1
  9178  9173  9178      1
  9179  9178  9179      1
  9180  9178  9181      1
  9181  9178  9182      1
  9182  9179  9180      1
  9183  9179  9183      1
  9184  9179  9184      1
  9185  9180  9185      1
