###
### Created by PolyChef-cpp17 on Mon May 12 14:45:28 2025
###

@<TRIPOS>MOLECULE
NO_INFO
9697 9696 1 0 0
SMALL
USER_CHARGES


@<TRIPOS>ATOM
      1 C         157.2075  137.6740   21.7546 C.3       0      M_A    0.0000
      2 C         157.2276  138.2023   23.1835 C.3       0      M_A    0.0000
      3 O         156.7265  139.5383   23.1845 O.3       0      M_A    0.0000
      4 H         158.1852  137.8526   21.2931 H         0      M_A    0.0000
      5 H         156.4575  138.2123   21.1640 H         0      M_A    0.0000
      6 H         158.2688  138.1920   23.5353 H         0      M_A    0.0000
      7 H         156.6236  137.5734   23.8512 H         0      M_A    0.0000
      8 C         157.3580  140.3092   22.1848 C.3       1      M_A    0.0000
      9 C         157.6684  141.7281   22.6449 C.3       1      M_A    0.0000
     10 O         156.8877  142.6403   21.8740 O.3       1      M_A    0.0000
     11 H         158.2934  139.8104   21.9066 H         1      M_A    0.0000
     12 H         156.7166  140.3327   21.2965 H         1      M_A    0.0000
     13 H         158.7384  141.9142   22.4758 H         1      M_A    0.0000
     14 H         157.4526  141.8584   23.7138 H         1      M_A    0.0000
     15 C         156.5881  143.7984   22.6234 C.3       2      M_A    0.0000
     16 C         155.9663  144.9020   21.7767 C.3       2      M_A    0.0000
     17 O         155.8371  146.0755   22.5779 O.3       2      M_A    0.0000
     18 H         155.8880  143.5203   23.4193 H         2      M_A    0.0000
     19 H         157.5064  144.1604   23.0996 H         2      M_A    0.0000
     20 H         154.9745  144.5609   21.4484 H         2      M_A    0.0000
     21 H         156.5765  145.1175   20.8894 H         2      M_A    0.0000
     22 C         156.0000  147.2370   21.7923 C.3       3      M_A    0.0000
     23 C         155.4248  148.4816   22.4567 C.3       3      M_A    0.0000
     24 O         155.0399  149.4063   21.4405 O.3       3      M_A    0.0000
     25 H         157.0717  147.3865   21.6192 H         3      M_A    0.0000
     26 H         155.5249  147.0759   20.8179 H         3      M_A    0.0000
     27 H         156.2085  148.9230   23.0883 H         3      M_A    0.0000
     28 H         154.5606  148.2351   23.0880 H         3      M_A    0.0000
     29 C         156.1765  149.9791   20.8301 C.3       4      M_A    0.0000
     30 C         156.9367  150.9136   21.7630 C.3       4      M_A    0.0000
     31 O         156.8553  152.2412   21.2466 O.3       4      M_A    0.0000
     32 H         156.8425  149.1676   20.5157 H         4      M_A    0.0000
     33 H         155.8618  150.5190   19.9298 H         4      M_A    0.0000
     34 H         157.9855  150.5860   21.7920 H         4      M_A    0.0000
     35 H         156.5287  150.8806   22.7821 H         4      M_A    0.0000
     36 C         156.9390  153.1887   22.2897 C.3       5      M_A    0.0000
     37 C         157.8731  154.3461   21.9591 C.3       5      M_A    0.0000
     38 O         158.5749  154.7204   23.1436 O.3       5      M_A    0.0000
     39 H         155.9335  153.5824   22.4769 H         5      M_A    0.0000
     40 H         157.2736  152.6830   23.2026 H         5      M_A    0.0000
     41 H         157.2606  155.1870   21.6045 H         5      M_A    0.0000
     42 H         158.5861  154.0720   21.1700 H         5      M_A    0.0000
     43 C         159.8629  155.2050   22.8289 C.3       6      M_A    0.0000
     44 C         160.4998  155.9727   23.9806 C.3       6      M_A    0.0000
     45 O         160.5717  157.3529   23.6262 O.3       6      M_A    0.0000
     46 H         160.4985  154.3494   22.5742 H         6      M_A    0.0000
     47 H         159.7944  155.8445   21.9416 H         6      M_A    0.0000
     48 H         161.5113  155.5726   24.1378 H         6      M_A    0.0000
     49 H         159.9248  155.8519   24.9085 H         6      M_A    0.0000
     50 C         160.8695  158.1440   24.7567 C.3       7      M_A    0.0000
     51 C         159.7220  158.1945   25.7577 C.3       7      M_A    0.0000
     52 O         159.5181  159.5506   26.1520 O.3       7      M_A    0.0000
     53 H         161.7540  157.7221   25.2472 H         7      M_A    0.0000
     54 H         161.1246  159.1566   24.4241 H         7      M_A    0.0000
     55 H         160.0047  157.5887   26.6301 H         7      M_A    0.0000
     56 H         158.7980  157.7845   25.3283 H         7      M_A    0.0000
     57 C         160.5792  159.9982   26.9683 C.3       8      M_A    0.0000
     58 C         160.1405  161.0525   27.9770 C.3       8      M_A    0.0000
     59 O         160.3255  162.3438   27.3989 O.3       8      M_A    0.0000
     60 H         160.9854  159.1346   27.5069 H         8      M_A    0.0000
     61 H         161.3754  160.3961   26.3289 H         8      M_A    0.0000
     62 H         160.7693  160.9488   28.8725 H         8      M_A    0.0000
     63 H         159.0898  160.9168   28.2663 H         8      M_A    0.0000
     64 C         159.4655  163.2879   28.0002 C.3       9      M_A    0.0000
     65 C         159.2998  164.5496   27.1622 C.3       9      M_A    0.0000
     66 O         160.0741  165.5941   27.7498 O.3       9      M_A    0.0000
     67 H         158.4848  162.8190   28.1389 H         9      M_A    0.0000
     68 H         159.8559  163.5425   28.9920 H         9      M_A    0.0000
     69 H         158.2354  164.8236   27.1669 H         9      M_A    0.0000
     70 H         159.6168  164.3848   26.1238 H         9      M_A    0.0000
     71 C         160.2873  166.6387   26.8246 C.3      10      M_A    0.0000
     72 C         161.7290  166.7064   26.3363 C.3      10      M_A    0.0000
     73 O         162.3490  167.8615   26.8993 O.3      10      M_A    0.0000
     74 H         159.6258  166.4768   25.9661 H        10      M_A    0.0000
     75 H         160.0019  167.5889   27.2901 H        10      M_A    0.0000
     76 H         161.7135  166.7856   25.2402 H        10      M_A    0.0000
     77 H         162.2892  165.8043   26.6166 H        10      M_A    0.0000
     78 C         163.6555  167.5614   27.3417 C.3      11      M_A    0.0000
     79 C         164.7293  168.0487   26.3769 C.3      11      M_A    0.0000
     80 O         165.9456  167.3584   26.6595 O.3      11      M_A    0.0000
     81 H         163.8060  168.0398   28.3161 H        11      M_A    0.0000
     82 H         163.7414  166.4784   27.4859 H        11      M_A    0.0000
     83 H         164.8649  169.1278   26.5356 H        11      M_A    0.0000
     84 H         164.4350  167.8802   25.3323 H        11      M_A    0.0000
     85 C         166.9036  167.6015   25.6516 C.3      12      M_A    0.0000
     86 C         168.1428  166.7268   25.7950 C.3      12      M_A    0.0000
     87 O         169.3001  167.5352   25.5876 O.3      12      M_A    0.0000
     88 H         166.4368  167.4044   24.6799 H        12      M_A    0.0000
     89 H         167.1846  168.6606   25.6770 H        12      M_A    0.0000
     90 H         168.0935  165.9391   25.0302 H        12      M_A    0.0000
     91 H         168.1866  166.2542   26.7854 H        12      M_A    0.0000
     92 C         170.4607  166.8714   26.0403 C.3      13      M_A    0.0000
     93 C         171.7383  167.4463   25.4413 C.3      13      M_A    0.0000
     94 O         172.8019  166.5200   25.6570 O.3      13      M_A    0.0000
     95 H         170.5044  166.9626   27.1315 H        13      M_A    0.0000
     96 H         170.3772  165.8057   25.7986 H        13      M_A    0.0000
     97 H         171.9570  168.3943   25.9525 H        13      M_A    0.0000
     98 H         171.6231  167.6434   24.3671 H        13      M_A    0.0000
     99 C         173.7527  166.6004   24.6168 C.3      14      M_A    0.0000
    100 C         175.1328  167.0141   25.1124 C.3      14      M_A    0.0000
    101 O         175.2900  168.4176   24.9097 O.3      14      M_A    0.0000
    102 H         173.8237  165.6162   24.1401 H        14      M_A    0.0000
    103 H         173.3945  167.3103   23.8626 H        14      M_A    0.0000
    104 H         175.8833  166.4642   24.5272 H        14      M_A    0.0000
    105 H         175.2661  166.7701   26.1748 H        14      M_A    0.0000
    106 C         176.6535  168.7798   24.9602 C.3      15      M_A    0.0000
    107 C         177.0306  169.4696   26.2653 C.3      15      M_A    0.0000
    108 O         177.2636  170.8523   26.0014 O.3      15      M_A    0.0000
    109 H         177.2543  167.8701   24.8494 H        15      M_A    0.0000
    110 H         176.8788  169.4331   24.1096 H        15      M_A    0.0000
    111 H         177.9489  169.0003   26.6451 H        15      M_A    0.0000
    112 H         176.2401  169.3586   27.0195 H        15      M_A    0.0000
    113 C         177.7767  171.4996   27.1461 C.3      16      M_A    0.0000
    114 C         177.2683  172.9286   27.2909 C.3      16      M_A    0.0000
    115 O         178.1787  173.6570   28.1133 O.3      16      M_A    0.0000
    116 H         177.4790  170.9225   28.0288 H        16      M_A    0.0000
    117 H         178.8716  171.4920   27.0973 H        16      M_A    0.0000
    118 H         176.2791  172.8909   27.7686 H        16      M_A    0.0000
    119 H         177.1692  173.4190   26.3133 H        16      M_A    0.0000
    120 C         179.5065  173.2375   27.8813 C.3      17      M_A    0.0000
    121 C         180.4851  173.7870   28.9117 C.3      17      M_A    0.0000
    122 O         181.0479  174.9976   28.4081 O.3      17      M_A    0.0000
    123 H         179.5306  172.1423   27.9131 H        17      M_A    0.0000
    124 H         179.8059  173.5478   26.8738 H        17      M_A    0.0000
    125 H         181.2767  173.0393   29.0616 H        17      M_A    0.0000
    126 H         179.9900  173.9740   29.8740 H        17      M_A    0.0000
    127 C         181.4695  175.8306   29.4670 C.3      18      M_A    0.0000
    128 C         181.9197  177.2057   28.9897 C.3      18      M_A    0.0000
    129 O         183.1260  177.5531   29.6680 O.3      18      M_A    0.0000
    130 H         180.6322  175.9499   30.1638 H        18      M_A    0.0000
    131 H         182.2835  175.3336   30.0069 H        18      M_A    0.0000
    132 H         181.1288  177.9275   29.2375 H        18      M_A    0.0000
    133 H         182.0816  177.2191   27.9035 H        18      M_A    0.0000
    134 C         183.9444  178.3609   28.8492 C.3      19      M_A    0.0000
    135 C         184.4606  179.5985   29.5727 C.3      19      M_A    0.0000
    136 O         184.7922  180.5907   28.6024 O.3      19      M_A    0.0000
    137 H         184.7975  177.7589   28.5165 H        19      M_A    0.0000
    138 H         183.3765  178.6540   27.9589 H        19      M_A    0.0000
    139 H         185.3584  179.3122   30.1383 H        19      M_A    0.0000
    140 H         183.7131  179.9930   30.2739 H        19      M_A    0.0000
    141 C         183.7150  180.8005   27.7145 C.3      20      M_A    0.0000
    142 C         184.1227  181.5776   26.4690 C.3      20      M_A    0.0000
    143 O         183.8852  182.9658   26.6977 O.3      20      M_A    0.0000
    144 H         183.3229  179.8224   27.4137 H        20      M_A    0.0000
    145 H         182.9158  181.3306   28.2450 H        20      M_A    0.0000
    146 H         183.5056  181.2247   25.6307 H        20      M_A    0.0000
    147 H         185.1800  181.4124   26.2224 H        20      M_A    0.0000
    148 C         183.9219  183.6854   25.4838 C.3      21      M_A    0.0000
    149 C         185.3014  184.2570   25.1807 C.3      21      M_A    0.0000
    150 O         185.2729  185.6654   25.4071 O.3      21      M_A    0.0000
    151 H         183.6296  183.0073   24.6741 H        21      M_A    0.0000
    152 H         183.1808  184.4916   25.5265 H        21      M_A    0.0000
    153 H         185.5305  184.0512   24.1256 H        21      M_A    0.0000
    154 H         186.0740  183.7908   25.8066 H        21      M_A    0.0000
    155 C         186.3339  186.3020   24.7276 C.3      22      M_A    0.0000
    156 C         187.4934  186.6575   25.6499 C.3      22      M_A    0.0000
    157 O         187.9295  187.9819   25.3469 O.3      22      M_A    0.0000
    158 H         186.6941  185.6258   23.9441 H        22      M_A    0.0000
    159 H         185.9510  187.2046   24.2380 H        22      M_A    0.0000
    160 H         188.3074  185.9428   25.4639 H        22      M_A    0.0000
    161 H         187.1998  186.5904   26.7060 H        22      M_A    0.0000
    162 C         189.1935  188.2352   25.9220 C.3      23      M_A    0.0000
    163 C         189.2585  189.5836   26.6284 C.3      23      M_A    0.0000
    164 O         190.2216  190.4014   25.9655 O.3      23      M_A    0.0000
    165 H         189.4061  187.4410   26.6466 H        23      M_A    0.0000
    166 H         189.9572  188.1832   25.1377 H        23      M_A    0.0000
    167 H         189.5674  189.4083   27.6684 H        23      M_A    0.0000
    168 H         188.2797  190.0817   26.6306 H        23      M_A    0.0000
    169 C         190.4515  191.5901   26.6913 C.3      24      M_A    0.0000
    170 C         189.1788  192.3968   26.9167 C.3      24      M_A    0.0000
    171 O         189.5390  193.7128   27.3341 O.3      24      M_A    0.0000
    172 H         190.8816  191.3212   27.6627 H        24      M_A    0.0000
    173 H         191.1917  192.1954   26.1557 H        24      M_A    0.0000
    174 H         188.5960  191.8996   27.7049 H        24      M_A    0.0000
    175 H         188.5688  192.4451   26.0047 H        24      M_A    0.0000
    176 C         188.5290  194.6385   26.9942 C.3      25      M_A    0.0000
    177 C         188.5366  195.8718   27.8890 C.3      25      M_A    0.0000
    178 O         187.3969  195.8223   28.7460 O.3      25      M_A    0.0000
    179 H         188.6843  194.9494   25.9549 H        25      M_A    0.0000
    180 H         187.5556  194.1382   27.0500 H        25      M_A    0.0000
    181 H         188.4827  196.7602   27.2442 H        25      M_A    0.0000
    182 H         189.4556  195.9260   28.4878 H        25      M_A    0.0000
    183 C         187.1694  197.0789   29.3474 C.3      26      M_A    0.0000
    184 C         187.4304  197.0682   30.8485 C.3      26      M_A    0.0000
    185 O         187.0093  198.3171   31.3950 O.3      26      M_A    0.0000
    186 H         187.8333  197.8111   28.8739 H        26      M_A    0.0000
    187 H         186.1370  197.3869   29.1463 H        26      M_A    0.0000
    188 H         188.5101  196.9352   31.0050 H        26      M_A    0.0000
    189 H         186.8985  196.2434   31.3412 H        26      M_A    0.0000
    190 C         188.0000  199.3046   31.2054 C.3      27      M_A    0.0000
    191 C         187.9222  200.4215   32.2389 C.3      27      M_A    0.0000
    192 O         188.5126  201.5974   31.6871 O.3      27      M_A    0.0000
    193 H         188.9819  198.8227   31.2723 H        27      M_A    0.0000
    194 H         187.9004  199.7180   30.1953 H        27      M_A    0.0000
    195 H         188.4836  200.1017   33.1281 H        27      M_A    0.0000
    196 H         186.8834  200.6239   32.5318 H        27      M_A    0.0000
    197 C         188.7719  202.5476   32.6983 C.3      28      M_A    0.0000
    198 C         188.8910  203.9662   32.1554 C.3      28      M_A    0.0000
    199 O         190.2138  204.4408   32.4018 O.3      28      M_A    0.0000
    200 H         187.9511  202.5095   33.4234 H        28      M_A    0.0000
    201 H         189.6922  202.2659   33.2225 H        28      M_A    0.0000
    202 H         188.1620  204.5954   32.6851 H        28      M_A    0.0000
    203 H         188.6724  204.0027   31.0798 H        28      M_A    0.0000
    204 C         190.4499  205.6456   31.7050 C.3      29      M_A    0.0000
    205 C         191.9335  205.9643   31.5676 C.3      29      M_A    0.0000
    206 O         192.0788  207.3568   31.2923 O.3      29      M_A    0.0000
    207 H         190.0089  205.5561   30.7058 H        29      M_A    0.0000
    208 H         189.9352  206.4624   32.2239 H        29      M_A    0.0000
    209 H         192.3323  205.3730   30.7314 H        29      M_A    0.0000
    210 H         192.4854  205.7016   32.4800 H        29      M_A    0.0000
    211 C         193.3006  207.6105   30.6325 C.3      30      M_A    0.0000
    212 C         194.2413  208.4844   31.4528 C.3      30      M_A    0.0000
    213 O         195.2113  209.0589   30.5782 O.3      30      M_A    0.0000
    214 H         193.7882  206.6497   30.4320 H        30      M_A    0.0000
    215 H         193.0909  208.0850   29.6671 H        30      M_A    0.0000
    216 H         194.7383  207.8450   32.1958 H        30      M_A    0.0000
    217 H         193.6935  209.2770   31.9798 H        30      M_A    0.0000
    218 C         196.1226  209.8595   31.3001 C.3      31      M_A    0.0000
    219 C         196.8674  210.8488   30.4124 C.3      31      M_A    0.0000
    220 O         198.1961  210.9996   30.9100 O.3      31      M_A    0.0000
    221 H         195.5633  210.4134   32.0626 H        31      M_A    0.0000
    222 H         196.8349  209.2074   31.8182 H        31      M_A    0.0000
    223 H         196.3385  211.8112   30.4575 H        31      M_A    0.0000
    224 H         196.8929  210.5091   29.3684 H        31      M_A    0.0000
    225 C         199.0971  211.2638   29.8559 C.3      32      M_A    0.0000
    226 C         199.5783  212.7094   29.8422 C.3      32      M_A    0.0000
    227 O         199.7350  213.1266   28.4867 O.3      32      M_A    0.0000
    228 H         199.9615  210.5998   29.9690 H        32      M_A    0.0000
    229 H         198.6117  211.0189   28.9043 H        32      M_A    0.0000
    230 H         200.5460  212.7507   30.3616 H        32      M_A    0.0000
    231 H         198.8715  213.3713   30.3603 H        32      M_A    0.0000
    232 C         200.2065  214.4557   28.4248 C.3      33      M_A    0.0000
    233 C         201.1721  214.6836   27.2684 C.3      33      M_A    0.0000
    234 O         202.0539  215.7513   27.6123 O.3      33      M_A    0.0000
    235 H         199.3436  215.1207   28.3068 H        33      M_A    0.0000
    236 H         200.6913  214.7050   29.3755 H        33      M_A    0.0000
    237 H         200.5826  214.9549   26.3814 H        33      M_A    0.0000
    238 H         201.7491  213.7764   27.0442 H        33      M_A    0.0000
    239 C         203.1895  215.7508   26.7737 C.3      34      M_A    0.0000
    240 C         204.2644  216.7251   27.2391 C.3      34      M_A    0.0000
    241 O         204.8336  217.3593   26.0947 O.3      34      M_A    0.0000
    242 H         203.6062  214.7373   26.7611 H        34      M_A    0.0000
    243 H         202.8764  215.9946   25.7521 H        34      M_A    0.0000
    244 H         205.0355  216.1515   27.7724 H        34      M_A    0.0000
    245 H         203.8517  217.4802   27.9215 H        34      M_A    0.0000
    246 C         206.2085  217.6093   26.2945 C.3      35      M_A    0.0000
    247 C         206.4824  219.0215   26.7966 C.3      35      M_A    0.0000
    248 O         207.6292  219.5334   26.1195 O.3      35      M_A    0.0000
    249 H         206.5849  216.8887   27.0293 H        35      M_A    0.0000
    250 H         206.7415  217.4338   25.3531 H        35      M_A    0.0000
    251 H         206.6780  218.9664   27.8768 H        35      M_A    0.0000
    252 H         205.6203  219.6805   26.6277 H        35      M_A    0.0000
    253 C         208.3410  220.4272   26.9485 C.3      36      M_A    0.0000
    254 C         208.4335  221.8290   26.3589 C.3      36      M_A    0.0000
    255 O         209.7164  222.3716   26.6677 O.3      36      M_A    0.0000
    256 H         207.8293  220.4789   27.9162 H        36      M_A    0.0000
    257 H         209.3452  220.0250   27.1243 H        36      M_A    0.0000
    258 H         207.6460  222.4436   26.8175 H        36      M_A    0.0000
    259 H         208.2822  221.8164   25.2712 H        36      M_A    0.0000
    260 C         210.0765  223.3657   25.7324 C.3      37      M_A    0.0000
    261 C         211.3529  224.1022   26.1194 C.3      37      M_A    0.0000
    262 O         211.2349  225.4655   25.7151 O.3      37      M_A    0.0000
    263 H         210.2224  222.8840   24.7589 H        37      M_A    0.0000
    264 H         209.2474  224.0753   25.6317 H        37      M_A    0.0000
    265 H         212.1928  223.6265   25.5938 H        37      M_A    0.0000
    266 H         211.5358  224.0450   27.2008 H        37      M_A    0.0000
    267 C         212.0302  226.2989   26.5310 C.3      38      M_A    0.0000
    268 C         212.8745  227.2782   25.7249 C.3      38      M_A    0.0000
    269 O         214.1960  227.2933   26.2626 O.3      38      M_A    0.0000
    270 H         211.3662  226.8622   27.1964 H        38      M_A    0.0000
    271 H         212.6750  225.6718   27.1572 H        38      M_A    0.0000
    272 H         212.4205  228.2748   25.8173 H        38      M_A    0.0000
    273 H         212.9036  227.0012   24.6626 H        38      M_A    0.0000
    274 C         215.1436  227.5618   25.2512 C.3      39      M_A    0.0000
    275 C         216.2797  228.4557   25.7324 C.3      39      M_A    0.0000
    276 O         217.0220  228.9024   24.5987 O.3      39      M_A    0.0000
    277 H         215.5594  226.6075   24.9087 H        39      M_A    0.0000
    278 H         214.6325  228.0266   24.4004 H        39      M_A    0.0000
    279 H         216.9254  227.8596   26.3924 H        39      M_A    0.0000
    280 H         215.8991  229.3178   26.2964 H        39      M_A    0.0000
    281 C         218.3149  229.3203   24.9814 C.3      40      M_A    0.0000
    282 C         219.3597  229.0614   23.9031 C.3      40      M_A    0.0000
    283 O         220.6295  228.8848   24.5293 O.3      40      M_A    0.0000
    284 H         218.2791  230.3946   25.1945 H        40      M_A    0.0000
    285 H         218.5942  228.8064   25.9082 H        40      M_A    0.0000
    286 H         219.3874  229.9368   23.2391 H        40      M_A    0.0000
    287 H         219.1078  228.1743   23.3066 H        40      M_A    0.0000
    288 C         221.6716  228.9857   23.5824 C.3      41      M_A    0.0000
    289 C         222.9158  228.2078   23.9925 C.3      41      M_A    0.0000
    290 O         223.9351  229.1360   24.3605 O.3      41      M_A    0.0000
    291 H         221.3049  228.5961   22.6260 H        41      M_A    0.0000
    292 H         221.9188  230.0435   23.4380 H        41      M_A    0.0000
    293 H         223.2447  227.6124   23.1291 H        41      M_A    0.0000
    294 H         222.7054  227.5286   24.8295 H        41      M_A    0.0000
    295 C         225.0160  228.4714   24.9791 C.3      42      M_A    0.0000
    296 C         225.7321  229.3417   26.0044 C.3      42      M_A    0.0000
    297 O         226.8687  229.9397   25.3828 O.3      42      M_A    0.0000
    298 H         224.6280  227.5761   25.4781 H        42      M_A    0.0000
    299 H         225.7199  228.1427   24.2061 H        42      M_A    0.0000
    300 H         226.0543  228.6957   26.8331 H        42      M_A    0.0000
    301 H         225.0676  230.1203   26.4022 H        42      M_A    0.0000
    302 C         227.8057  230.3579   26.3523 C.3      43      M_A    0.0000
    303 C         227.8250  231.8701   26.5375 C.3      43      M_A    0.0000
    304 O         228.9932  232.3934   25.9072 O.3      43      M_A    0.0000
    305 H         227.5474  229.8837   27.3059 H        43      M_A    0.0000
    306 H         228.8003  230.0008   26.0617 H        43      M_A    0.0000
    307 H         227.8545  232.0803   27.6159 H        43      M_A    0.0000
    308 H         226.9266  232.3368   26.1118 H        43      M_A    0.0000
    309 C         228.9334  233.8019   25.8354 C.3      44      M_A    0.0000
    310 C         229.6593  234.3599   24.6176 C.3      44      M_A    0.0000
    311 O         230.7832  235.1180   25.0625 O.3      44      M_A    0.0000
    312 H         227.8794  234.0987   25.7909 H        44      M_A    0.0000
    313 H         229.3590  234.2225   26.7536 H        44      M_A    0.0000
    314 H         228.9602  235.0099   24.0731 H        44      M_A    0.0000
    315 H         229.9896  233.5564   23.9457 H        44      M_A    0.0000
    316 C         231.6242  235.4477   23.9777 C.3      45      M_A    0.0000
    317 C         232.9345  236.0854   24.4223 C.3      45      M_A    0.0000
    318 O         233.2689  237.1288   23.5083 O.3      45      M_A    0.0000
    319 H         231.8436  234.5289   23.4222 H        45      M_A    0.0000
    320 H         231.0856  236.1235   23.3036 H        45      M_A    0.0000
    321 H         233.7128  235.3096   24.4070 H        45      M_A    0.0000
    322 H         232.8581  236.4880   25.4412 H        45      M_A    0.0000
    323 C         234.6663  237.2004   23.3217 C.3      46      M_A    0.0000
    324 C         235.2949  238.3894   24.0378 C.3      46      M_A    0.0000
    325 O         235.7127  239.3426   23.0618 O.3      46      M_A    0.0000
    326 H         235.1114  236.2754   23.7053 H        46      M_A    0.0000
    327 H         234.8789  237.2515   22.2478 H        46      M_A    0.0000
    328 H         236.1644  238.0253   24.6028 H        46      M_A    0.0000
    329 H         234.5883  238.8536   24.7387 H        46      M_A    0.0000
    330 C         236.5906  240.2894   23.6323 C.3      47      M_A    0.0000
    331 C         235.9792  241.6825   23.7159 C.3      47      M_A    0.0000
    332 O         236.5902  242.5104   22.7274 O.3      47      M_A    0.0000
    333 H         236.8506  239.9515   24.6418 H        47      M_A    0.0000
    334 H         237.5140  240.3176   23.0427 H        47      M_A    0.0000
    335 H         236.1823  242.0835   24.7188 H        47      M_A    0.0000
    336 H         234.8922  241.6523   23.5618 H        47      M_A    0.0000
    337 C         235.7620  243.6103   22.4159 C.3      48      M_A    0.0000
    338 C         236.3263  244.4716   21.2929 C.3      48      M_A    0.0000
    339 O         235.9659  245.8310   21.5337 O.3      48      M_A    0.0000
    340 H         234.7810  243.2263   22.1141 H        48      M_A    0.0000
    341 H         235.6195  244.2143   23.3192 H        48      M_A    0.0000
    342 H         235.8850  244.1286   20.3466 H        48      M_A    0.0000
    343 H         237.4185  244.3779   21.2269 H        48      M_A    0.0000
    344 C         234.5835  246.0257   21.3247 C.3      49      M_A    0.0000
    345 C         234.2915  247.1092   20.2941 C.3      49      M_A    0.0000
    346 O         234.1780  248.3622   20.9671 O.3      49      M_A    0.0000
    347 H         234.1519  245.0789   20.9807 H        49      M_A    0.0000
    348 H         234.1120  246.2783   22.2812 H        49      M_A    0.0000
    349 H         233.3416  246.8615   19.7998 H        49      M_A    0.0000
    350 H         235.0818  247.1610   19.5331 H        49      M_A    0.0000
    351 C         235.3753  249.1011   20.8520 C.3      50      M_A    0.0000
    352 C         236.5719  248.3802   21.4601 C.3      50      M_A    0.0000
    353 O         237.7442  249.1577   21.2214 O.3      50      M_A    0.0000
    354 H         235.5675  249.2792   19.7879 H        50      M_A    0.0000
    355 H         235.2382  250.0763   21.3330 H        50      M_A    0.0000
    356 H         236.6646  247.4012   20.9692 H        50      M_A    0.0000
    357 H         236.4382  248.2225   22.5387 H        50      M_A    0.0000
    358 C         238.8760  248.5460   21.8024 C.3      51      M_A    0.0000
    359 C         239.9418  249.5534   22.2152 C.3      51      M_A    0.0000
    360 O         240.8996  249.6631   21.1633 O.3      51      M_A    0.0000
    361 H         238.5483  247.9887   22.6872 H        51      M_A    0.0000
    362 H         239.2941  247.8248   21.0909 H        51      M_A    0.0000
    363 H         240.4277  249.1799   23.1275 H        51      M_A    0.0000
    364 H         239.5019  250.5370   22.4275 H        51      M_A    0.0000
    365 C         241.8475  250.6680   21.4538 C.3      52      M_A    0.0000
    366 C         241.2008  252.0007   21.8103 C.3      52      M_A    0.0000
    367 O         241.8174  253.0297   21.0376 O.3      52      M_A    0.0000
    368 H         242.4585  250.3294   22.2982 H        52      M_A    0.0000
    369 H         242.5114  250.7899   20.5904 H        52      M_A    0.0000
    370 H         241.3681  252.1844   22.8809 H        52      M_A    0.0000
    371 H         240.1193  251.9843   21.6202 H        52      M_A    0.0000
    372 C         241.4926  254.3033   21.5523 C.3      53      M_A    0.0000
    373 C         241.9063  255.4365   20.6217 C.3      53      M_A    0.0000
    374 O         242.7843  256.3115   21.3283 O.3      53      M_A    0.0000
    375 H         240.4084  254.3446   21.7067 H        53      M_A    0.0000
    376 H         241.9727  254.4240   22.5301 H        53      M_A    0.0000
    377 H         240.9986  255.9784   20.3212 H        53      M_A    0.0000
    378 H         242.4026  255.0530   19.7202 H        53      M_A    0.0000
    379 C         244.0674  256.3133   20.7401 C.3      54      M_A    0.0000
    380 C         245.0181  257.3004   21.4059 C.3      54      M_A    0.0000
    381 O         245.8819  257.8464   20.4102 O.3      54      M_A    0.0000
    382 H         244.4843  255.3032   20.8232 H        54      M_A    0.0000
    383 H         243.9687  256.5457   19.6736 H        54      M_A    0.0000
    384 H         245.6077  256.7526   22.1545 H        54      M_A    0.0000
    385 H         244.4689  258.1064   21.9107 H        54      M_A    0.0000
    386 C         247.0393  258.3977   21.0010 C.3      55      M_A    0.0000
    387 C         247.1853  259.8895   20.7275 C.3      55      M_A    0.0000
    388 O         248.5742  260.2149   20.6952 O.3      55      M_A    0.0000
    389 H         246.9820  258.2362   22.0834 H        55      M_A    0.0000
    390 H         247.9184  257.8585   20.6301 H        55      M_A    0.0000
    391 H         246.6912  260.4349   21.5438 H        55      M_A    0.0000
    392 H         246.7108  260.1705   19.7778 H        55      M_A    0.0000
    393 C         248.7621  261.6111   20.7838 C.3      56      M_A    0.0000
    394 C         249.9671  262.0939   19.9862 C.3      56      M_A    0.0000
    395 O         250.4100  263.3354   20.5326 O.3      56      M_A    0.0000
    396 H         247.8602  262.1035   20.4030 H        56      M_A    0.0000
    397 H         248.8724  261.8882   21.8384 H        56      M_A    0.0000
    398 H         249.6504  262.2348   18.9433 H        56      M_A    0.0000
    399 H         250.7834  261.3596   20.0106 H        56      M_A    0.0000
    400 C         251.6667  263.6954   20.0000 C.3      57      M_A    0.0000
    401 C         252.2614  264.9245   20.6762 C.3      57      M_A    0.0000
    402 O         252.5954  265.8822   19.6726 O.3      57      M_A    0.0000
    403 H         252.3501  262.8488   20.1311 H        57      M_A    0.0000
    404 H         251.5586  263.8723   18.9239 H        57      M_A    0.0000
    405 H         253.1681  264.6120   21.2130 H        57      M_A    0.0000
    406 H         251.5589  265.3640   21.3968 H        57      M_A    0.0000
    407 C         252.9474  267.1173   20.2585 C.3      58      M_A    0.0000
    408 C         253.8007  267.9822   19.3390 C.3      58      M_A    0.0000
    409 O         254.3905  269.0271   20.1110 O.3      58      M_A    0.0000
    410 H         252.0251  267.6563   20.5028 H        58      M_A    0.0000
    411 H         253.4797  266.9259   21.1972 H        58      M_A    0.0000
    412 H         253.1440  268.4100   18.5684 H        58      M_A    0.0000
    413 H         254.5837  267.3906   18.8461 H        58      M_A    0.0000
    414 C         254.9059  270.0383   19.2716 C.3      59      M_A    0.0000
    415 C         256.0365  270.8242   19.9238 C.3      59      M_A    0.0000
    416 O         255.7398  272.2166   19.8294 O.3      59      M_A    0.0000
    417 H         255.2796  269.5664   18.3559 H        59      M_A    0.0000
    418 H         254.0910  270.7143   18.9888 H        59      M_A    0.0000
    419 H         256.9645  270.6006   19.3790 H        59      M_A    0.0000
    420 H         256.1678  270.5379   20.9759 H        59      M_A    0.0000
    421 C         256.5307  272.9582   20.7333 C.3      60      M_A    0.0000
    422 C         256.8400  274.3622   20.2288 C.3      60      M_A    0.0000
    423 O         258.1129  274.7604   20.7357 O.3      60      M_A    0.0000
    424 H         255.9893  273.0303   21.6834 H        60      M_A    0.0000
    425 H         257.4617  272.4115   20.9215 H        60      M_A    0.0000
    426 H         256.0587  275.0381   20.6039 H        60      M_A    0.0000
    427 H         256.8430  274.4014   19.1313 H        60      M_A    0.0000
    428 C         258.6243  275.8513   19.9999 C.3      61      M_A    0.0000
    429 C         259.7230  276.5994   20.7447 C.3      61      M_A    0.0000
    430 O         259.8699  277.8941   20.1634 O.3      61      M_A    0.0000
    431 H         259.0284  275.4689   19.0557 H        61      M_A    0.0000
    432 H         257.8012  276.5331   19.7578 H        61      M_A    0.0000
    433 H         260.6568  276.0305   20.6345 H        61      M_A    0.0000
    434 H         259.4903  276.6913   21.8141 H        61      M_A    0.0000
    435 C         261.0859  278.4872   20.5661 C.3      62      M_A    0.0000
    436 C         261.1721  279.9622   20.1943 C.3      62      M_A    0.0000
    437 O         262.5464  280.3195   20.0551 O.3      62      M_A    0.0000
    438 H         261.1729  278.3866   21.6538 H        62      M_A    0.0000
    439 H         261.9172  277.9350   20.1133 H        62      M_A    0.0000
    440 H         260.7134  280.5449   21.0055 H        62      M_A    0.0000
    441 H         260.6325  280.1718   19.2610 H        62      M_A    0.0000
    442 C         262.6733  281.6000   19.4747 C.3      63      M_A    0.0000
    443 C         264.1010  282.1295   19.5251 C.3      63      M_A    0.0000
    444 O         264.0594  283.5352   19.7666 O.3      63      M_A    0.0000
    445 H         262.3520  281.5359   18.4289 H        63      M_A    0.0000
    446 H         261.9962  282.2914   19.9890 H        63      M_A    0.0000
    447 H         264.5724  281.9299   18.5525 H        63      M_A    0.0000
    448 H         264.6856  281.6302   20.3093 H        63      M_A    0.0000
    449 C         265.3474  284.0287   20.0665 C.3      64      M_A    0.0000
    450 C         265.3607  285.5344   20.2991 C.3      64      M_A    0.0000
    451 O         266.5636  286.0715   19.7509 O.3      64      M_A    0.0000
    452 H         265.7063  283.5236   20.9704 H        64      M_A    0.0000
    453 H         266.0271  283.7677   19.2473 H        64      M_A    0.0000
    454 H         265.3309  285.7113   21.3834 H        64      M_A    0.0000
    455 H         264.4887  286.0181   19.8389 H        64      M_A    0.0000
    456 C         266.6085  287.4720   19.9218 C.3      65      M_A    0.0000
    457 C         267.8490  288.1007   19.2995 C.3      65      M_A    0.0000
    458 O         268.0681  289.3748   19.9033 O.3      65      M_A    0.0000
    459 H         265.7159  287.9033   19.4547 H        65      M_A    0.0000
    460 H         266.5669  287.7003   20.9929 H        65      M_A    0.0000
    461 H         267.6649  288.2226   18.2228 H        65      M_A    0.0000
    462 H         268.7324  287.4627   19.4361 H        65      M_A    0.0000
    463 C         269.2813  289.9388   19.4530 C.3      66      M_A    0.0000
    464 C         269.7297  291.1226   20.3009 C.3      66      M_A    0.0000
    465 O         270.7495  291.8297   19.5967 O.3      66      M_A    0.0000
    466 H         270.0537  289.1620   19.4857 H        66      M_A    0.0000
    467 H         269.1631  290.2468   18.4079 H        66      M_A    0.0000
    468 H         270.1296  290.7313   21.2469 H        66      M_A    0.0000
    469 H         268.8910  291.7954   20.5242 H        66      M_A    0.0000
    470 C         271.6623  292.4187   20.4980 C.3      67      M_A    0.0000
    471 C         273.0593  292.5656   19.9079 C.3      67      M_A    0.0000
    472 O         273.9243  291.6231   20.5399 O.3      67      M_A    0.0000
    473 H         271.2832  293.4099   20.7713 H        67      M_A    0.0000
    474 H         271.7002  291.8136   21.4109 H        67      M_A    0.0000
    475 H         273.4078  293.5883   20.1092 H        67      M_A    0.0000
    476 H         273.0542  292.4023   18.8219 H        67      M_A    0.0000
    477 C         275.2767  291.9372   20.2847 C.3      68      M_A    0.0000
    478 C         275.5473  292.2172   18.8117 C.3      68      M_A    0.0000
    479 O         276.5434  291.3066   18.3483 O.3      68      M_A    0.0000
    480 H         275.5395  292.8244   20.8718 H        68      M_A    0.0000
    481 H         275.9051  291.1096   20.6329 H        68      M_A    0.0000
    482 H         275.9129  293.2499   18.7233 H        68      M_A    0.0000
    483 H         274.6341  292.1138   18.2104 H        68      M_A    0.0000
    484 C         276.4411  290.0699   19.0211 C.3      69      M_A    0.0000
    485 C         275.9268  288.9523   18.1222 C.3      69      M_A    0.0000
    486 O         274.6980  288.4633   18.6575 O.3      69      M_A    0.0000
    487 H         277.4351  289.7996   19.3952 H        69      M_A    0.0000
    488 H         275.7809  290.1907   19.8876 H        69      M_A    0.0000
    489 H         276.6779  288.1500   18.1134 H        69      M_A    0.0000
    490 H         275.7752  289.3044   17.0930 H        69      M_A    0.0000
    491 C         274.6359  288.6868   20.0500 C.3      70      M_A    0.0000
    492 C         273.4722  287.9584   20.7109 C.3      70      M_A    0.0000
    493 O         273.4153  288.3390   22.0849 O.3      70      M_A    0.0000
    494 H         275.5750  288.3395   20.4954 H        70      M_A    0.0000
    495 H         274.5591  289.7646   20.2334 H        70      M_A    0.0000
    496 H         273.6562  286.8780   20.6283 H        70      M_A    0.0000
    497 H         272.5204  288.1928   20.2158 H        70      M_A    0.0000
    498 C         272.1650  288.0000   22.6456 C.3      71      M_A    0.0000
    499 C         272.2774  286.9433   23.7374 C.3      71      M_A    0.0000
    500 O         271.4177  285.8529   23.4091 O.3      71      M_A    0.0000
    501 H         271.7220  288.9079   23.0703 H        71      M_A    0.0000
    502 H         271.5017  287.6482   21.8472 H        71      M_A    0.0000
    503 H         271.9598  287.3990   24.6858 H        71      M_A    0.0000
    504 H         273.3110  286.5882   23.8456 H        71      M_A    0.0000
    505 C         270.8965  286.0028   22.1058 C.3      72      M_A    0.0000
    506 C         269.9239  284.8917   21.7302 C.3      72      M_A    0.0000
    507 O         270.3156  284.3471   20.4709 O.3      72      M_A    0.0000
    508 H         270.3771  286.9663   22.0528 H        72      M_A    0.0000
    509 H         271.7280  286.0332   21.3924 H        72      M_A    0.0000
    510 H         268.9193  285.3309   21.6528 H        72      M_A    0.0000
    511 H         269.9054  284.1015   22.4926 H        72      M_A    0.0000
    512 C         269.3929  283.3691   20.0411 C.3      73      M_A    0.0000
    513 C         269.2961  282.1899   21.0011 C.3      73      M_A    0.0000
    514 O         269.0447  281.0052   20.2468 O.3      73      M_A    0.0000
    515 H         268.4079  283.8416   19.9540 H        73      M_A    0.0000
    516 H         269.6841  283.0204   19.0437 H        73      M_A    0.0000
    517 H         268.4613  282.3800   21.6903 H        73      M_A    0.0000
    518 H         270.2177  282.0743   21.5872 H        73      M_A    0.0000
    519 C         268.3454  280.0570   21.0244 C.3      74      M_A    0.0000
    520 C         268.6864  278.6208   20.6469 C.3      74      M_A    0.0000
    521 O         267.4831  277.8542   20.6302 O.3      74      M_A    0.0000
    522 H         268.6016  280.2209   22.0772 H        74      M_A    0.0000
    523 H         267.2691  280.2309   20.9128 H        74      M_A    0.0000
    524 H         269.3737  278.2234   21.4069 H        74      M_A    0.0000
    525 H         269.1781  278.5708   19.6662 H        74      M_A    0.0000
    526 C         266.7219  278.1448   19.4775 C.3      75      M_A    0.0000
    527 C         265.2638  277.7246   19.6146 C.3      75      M_A    0.0000
    528 O         265.0182  276.6301   18.7328 O.3      75      M_A    0.0000
    529 H         266.7679  279.2252   19.2995 H        75      M_A    0.0000
    530 H         267.1786  277.6458   18.6153 H        75      M_A    0.0000
    531 H         264.6350  278.5811   19.3334 H        75      M_A    0.0000
    532 H         265.0257  277.4366   20.6473 H        75      M_A    0.0000
    533 C         263.6555  276.2628   18.7601 C.3      76      M_A    0.0000
    534 C         263.1962  275.8099   20.1404 C.3      76      M_A    0.0000
    535 O         263.4881  274.4209   20.2869 O.3      76      M_A    0.0000
    536 H         263.0603  277.1297   18.4514 H        76      M_A    0.0000
    537 H         263.4879  275.4659   18.0266 H        76      M_A    0.0000
    538 H         262.1117  275.9745   20.2091 H        76      M_A    0.0000
    539 H         263.6909  276.3842   20.9352 H        76      M_A    0.0000
    540 C         262.4174  273.7492   20.9154 C.3      77      M_A    0.0000
    541 C         261.9471  274.4502   22.1838 C.3      77      M_A    0.0000
    542 O         261.3974  273.4751   23.0685 O.3      77      M_A    0.0000
    543 H         261.5835  273.6943   20.2065 H        77      M_A    0.0000
    544 H         262.7275  272.7234   21.1444 H        77      M_A    0.0000
    545 H         261.1745  275.1797   21.9027 H        77      M_A    0.0000
    546 H         262.7720  274.9825   22.6761 H        77      M_A    0.0000
    547 C         260.9994  272.3229   22.3566 C.3      78      M_A    0.0000
    548 C         259.6708  272.5078   21.6341 C.3      78      M_A    0.0000
    549 O         259.8313  272.1115   20.2728 O.3      78      M_A    0.0000
    550 H         261.7773  272.0884   21.6211 H        78      M_A    0.0000
    551 H         260.9354  271.4795   23.0536 H        78      M_A    0.0000
    552 H         259.4008  273.5720   21.6857 H        78      M_A    0.0000
    553 H         258.8732  271.9185   22.1060 H        78      M_A    0.0000
    554 C         259.4382  273.1497   19.4009 C.3      79      M_A    0.0000
    555 C         258.4660  272.6787   18.3264 C.3      79      M_A    0.0000
    556 O         259.0643  272.8819   17.0471 O.3      79      M_A    0.0000
    557 H         258.9601  273.9355   19.9966 H        79      M_A    0.0000
    558 H         260.3325  273.5814   18.9372 H        79      M_A    0.0000
    559 H         257.5489  273.2784   18.4111 H        79      M_A    0.0000
    560 H         258.2078  271.6193   18.4571 H        79      M_A    0.0000
    561 C         260.0572  271.9093   16.8001 C.3      80      M_A    0.0000
    562 C         259.7523  271.0557   15.5755 C.3      80      M_A    0.0000
    563 O         259.3656  269.7530   16.0106 O.3      80      M_A    0.0000
    564 H         261.0122  272.4250   16.6482 H        80      M_A    0.0000
    565 H         260.1598  271.2736   17.6869 H        80      M_A    0.0000
    566 H         260.6665  270.9925   14.9687 H        80      M_A    0.0000
    567 H         258.9547  271.5010   14.9659 H        80      M_A    0.0000
    568 C         259.3828  269.6717   17.4197 C.3      81      M_A    0.0000
    569 C         258.9824  268.2945   17.9341 C.3      81      M_A    0.0000
    570 O         259.4030  268.1732   19.2921 O.3      81      M_A    0.0000
    571 H         260.3974  269.9014   17.7642 H        81      M_A    0.0000
    572 H         258.7118  270.4362   17.8275 H        81      M_A    0.0000
    573 H         259.4888  267.5400   17.3158 H        81      M_A    0.0000
    574 H         257.8976  268.1399   17.8608 H        81      M_A    0.0000
    575 C         258.3452  268.4873   20.1724 C.3      82      M_A    0.0000
    576 C         258.6898  269.6275   21.1224 C.3      82      M_A    0.0000
    577 O         259.4904  269.1117   22.1849 O.3      82      M_A    0.0000
    578 H         257.4731  268.7721   19.5729 H        82      M_A    0.0000
    579 H         258.0787  267.5896   20.7417 H        82      M_A    0.0000
    580 H         257.7498  270.0321   21.5234 H        82      M_A    0.0000
    581 H         259.2269  270.4325   20.6032 H        82      M_A    0.0000
    582 C         259.2166  267.7433   22.3974 C.3      83      M_A    0.0000
    583 C         257.7285  267.4236   22.3273 C.3      83      M_A    0.0000
    584 O         257.1788  267.5132   23.6408 O.3      83      M_A    0.0000
    585 H         259.7435  267.1648   21.6302 H        83      M_A    0.0000
    586 H         259.6201  267.4478   23.3726 H        83      M_A    0.0000
    587 H         257.6183  266.3996   21.9436 H        83      M_A    0.0000
    588 H         257.2029  268.1116   21.6516 H        83      M_A    0.0000
    589 C         257.0328  268.8622   24.0302 C.3      84      M_A    0.0000
    590 C         255.6125  269.1973   24.4682 C.3      84      M_A    0.0000
    591 O         255.3986  270.5973   24.2949 O.3      84      M_A    0.0000
    592 H         257.7190  269.0551   24.8626 H        84      M_A    0.0000
    593 H         257.3322  269.5068   23.1960 H        84      M_A    0.0000
    594 H         255.5122  268.9312   25.5299 H        84      M_A    0.0000
    595 H         254.8711  268.6290   23.8908 H        84      M_A    0.0000
    596 C         255.0208  270.8839   22.9653 C.3      85      M_A    0.0000
    597 C         253.6318  271.5024   22.8690 C.3      85      M_A    0.0000
    598 O         252.7164  270.5040   22.4207 O.3      85      M_A    0.0000
    599 H         255.7533  271.5813   22.5433 H        85      M_A    0.0000
    600 H         255.0638  269.9601   22.3772 H        85      M_A    0.0000
    601 H         253.6754  272.3251   22.1416 H        85      M_A    0.0000
    602 H         253.3050  271.9049   23.8372 H        85      M_A    0.0000
    603 C         251.4930  271.0885   22.0276 C.3      86      M_A    0.0000
    604 C         250.2868  270.2379   22.4056 C.3      86      M_A    0.0000
    605 O         249.2086  270.5569   21.5272 O.3      86      M_A    0.0000
    606 H         251.4080  272.0666   22.5145 H        86      M_A    0.0000
    607 H         251.5116  271.2563   20.9448 H        86      M_A    0.0000
    608 H         250.0109  270.4802   23.4416 H        86      M_A    0.0000
    609 H         250.5179  269.1660   22.3439 H        86      M_A    0.0000
    610 C         248.0071  269.9682   21.9771 C.3      87      M_A    0.0000
    611 C         248.1259  268.4611   22.1669 C.3      87      M_A    0.0000
    612 O         247.1088  267.8215   21.3973 O.3      87      M_A    0.0000
    613 H         247.7364  270.4292   22.9337 H        87      M_A    0.0000
    614 H         247.2100  270.1964   21.2604 H        87      M_A    0.0000
    615 H         247.9833  268.2404   23.2341 H        87      M_A    0.0000
    616 H         249.1152  268.0960   21.8605 H        87      M_A    0.0000
    617 C         246.7941  266.5564   21.9388 C.3      88      M_A    0.0000
    618 C         247.5386  265.4200   21.2493 C.3      88      M_A    0.0000
    619 O         246.5990  264.4068   20.8935 O.3      88      M_A    0.0000
    620 H         247.0575  266.5635   23.0026 H        88      M_A    0.0000
    621 H         245.7121  266.3980   21.8650 H        88      M_A    0.0000
    622 H         248.2751  265.0163   21.9582 H        88      M_A    0.0000
    623 H         248.0678  265.7733   20.3542 H        88      M_A    0.0000
    624 C         245.5084  264.4003   21.7896 C.3      89      M_A    0.0000
    625 C         245.1118  262.9945   22.2229 C.3      89      M_A    0.0000
    626 O         243.7385  262.7856   21.8970 O.3      89      M_A    0.0000
    627 H         245.7885  264.9821   22.6750 H        89      M_A    0.0000
    628 H         244.6573  264.9033   21.3165 H        89      M_A    0.0000
    629 H         245.2548  262.9206   23.3101 H        89      M_A    0.0000
    630 H         245.7347  262.2341   21.7330 H        89      M_A    0.0000
    631 C         243.6097  261.8293   20.8666 C.3      90      M_A    0.0000
    632 C         244.8198  261.7952   19.9416 C.3      90      M_A    0.0000
    633 O         244.4629  262.3984   18.6988 O.3      90      M_A    0.0000
    634 H         243.4836  260.8432   21.3277 H        90      M_A    0.0000
    635 H         242.7020  262.0466   20.2922 H        90      M_A    0.0000
    636 H         245.0966  260.7435   19.7823 H        90      M_A    0.0000
    637 H         245.6762  262.3220   20.3833 H        90      M_A    0.0000
    638 C         244.9362  261.6273   17.6152 C.3      91      M_A    0.0000
    639 C         246.4483  261.4421   17.6415 C.3      91      M_A    0.0000
    640 O         246.8392  260.7052   16.4840 O.3      91      M_A    0.0000
    641 H         244.4544  260.6439   17.6578 H        91      M_A    0.0000
    642 H         244.6312  262.1070   16.6782 H        91      M_A    0.0000
    643 H         246.7063  260.8792   18.5495 H        91      M_A    0.0000
    644 H         246.9694  262.4086   17.6660 H        91      M_A    0.0000
    645 C         245.7729  259.9068   16.0166 C.3      92      M_A    0.0000
    646 C         245.1460  259.0602   17.1174 C.3      92      M_A    0.0000
    647 O         243.8014  258.7550   16.7501 O.3      92      M_A    0.0000
    648 H         245.0082  260.5687   15.5946 H        92      M_A    0.0000
    649 H         246.1390  259.2635   15.2084 H        92      M_A    0.0000
    650 H         245.1570  259.6476   18.0463 H        92      M_A    0.0000
    651 H         245.7113  258.1328   17.2800 H        92      M_A    0.0000
    652 C         242.8891  259.4239   17.5945 C.3      93      M_A    0.0000
    653 C         243.3738  259.5052   19.0366 C.3      93      M_A    0.0000
    654 O         242.2608  259.8062   19.8771 O.3      93      M_A    0.0000
    655 H         242.7445  260.4390   17.2077 H        93      M_A    0.0000
    656 H         241.9221  258.9100   17.5501 H        93      M_A    0.0000
    657 H         244.1199  260.3098   19.0999 H        93      M_A    0.0000
    658 H         243.8422  258.5644   19.3550 H        93      M_A    0.0000
    659 C         242.6092  259.6629   21.2376 C.3      94      M_A    0.0000
    660 C         241.8367  258.5457   21.9278 C.3      94      M_A    0.0000
    661 O         241.3322  259.0371   23.1687 O.3      94      M_A    0.0000
    662 H         243.6817  259.4456   21.2960 H        94      M_A    0.0000
    663 H         242.4342  260.6153   21.7509 H        94      M_A    0.0000
    664 H         242.5312  257.7133   22.1085 H        94      M_A    0.0000
    665 H         241.0095  258.1852   21.3018 H        94      M_A    0.0000
    666 C         242.3693  259.6054   23.9395 C.3      95      M_A    0.0000
    667 C         243.4937  258.6193   24.2304 C.3      95      M_A    0.0000
    668 O         244.1894  259.0504   25.3992 O.3      95      M_A    0.0000
    669 H         242.7769  260.4607   23.3887 H        95      M_A    0.0000
    670 H         241.9477  259.9842   24.8775 H        95      M_A    0.0000
    671 H         244.1751  258.6161   23.3681 H        95      M_A    0.0000
    672 H         243.1060  257.6023   24.3771 H        95      M_A    0.0000
    673 C         244.7785  257.9528   26.0630 C.3      96      M_A    0.0000
    674 C         246.3010  258.0115   26.0593 C.3      96      M_A    0.0000
    675 O         246.8000  256.8994   25.3176 O.3      96      M_A    0.0000
    676 H         244.4231  257.9478   27.0997 H        96      M_A    0.0000
    677 H         244.4358  257.0258   25.5893 H        96      M_A    0.0000
    678 H         246.6462  257.9529   27.1011 H        96      M_A    0.0000
    679 H         246.6641  258.9502   25.6199 H        96      M_A    0.0000
    680 C         246.1344  256.7869   24.0778 C.3      97      M_A    0.0000
    681 C         245.2407  255.5554   24.0000 C.3      97      M_A    0.0000
    682 O         246.0666  254.3962   23.9005 O.3      97      M_A    0.0000
    683 H         245.5211  257.6839   23.9351 H        97      M_A    0.0000
    684 H         246.8804  256.7628   23.2754 H        97      M_A    0.0000
    685 H         244.6129  255.6469   23.1025 H        97      M_A    0.0000
    686 H         244.5883  255.4782   24.8801 H        97      M_A    0.0000
    687 C         247.0228  254.5511   22.8736 C.3      98      M_A    0.0000
    688 C         246.9169  253.4712   21.8040 C.3      98      M_A    0.0000
    689 O         247.7860  252.3948   22.1530 O.3      98      M_A    0.0000
    690 H         246.8709  255.5317   22.4085 H        98      M_A    0.0000
    691 H         248.0247  254.5450   23.3177 H        98      M_A    0.0000
    692 H         247.2292  253.9098   20.8458 H        98      M_A    0.0000
    693 H         245.8860  253.1056   21.7051 H        98      M_A    0.0000
    694 C         247.1397  251.4947   23.0276 C.3      99      M_A    0.0000
    695 C         247.2252  250.0496   22.5526 C.3      99      M_A    0.0000
    696 O         245.9898  249.3981   22.8444 O.3      99      M_A    0.0000
    697 H         247.6114  251.5760   24.0134 H        99      M_A    0.0000
    698 H         246.0912  251.7950   23.1347 H        99      M_A    0.0000
    699 H         248.0450  249.5604   23.0972 H        99      M_A    0.0000
    700 H         247.4347  249.9940   21.4759 H        99      M_A    0.0000
    701 C         245.6647  248.4681   21.8335 C.3     100      M_A    0.0000
    702 C         245.8090  247.0234   22.2952 C.3     100      M_A    0.0000
    703 O         246.1538  246.2158   21.1706 O.3     100      M_A    0.0000
    704 H         244.6275  248.6439   21.5264 H       100      M_A    0.0000
    705 H         246.3049  248.6516   20.9631 H       100      M_A    0.0000
    706 H         244.8428  246.6998   22.7072 H       100      M_A    0.0000
    707 H         246.5751  246.9275   23.0762 H       100      M_A    0.0000
    708 C         245.7871  244.8705   21.3905 C.3     101      M_A    0.0000
    709 C         246.6432  244.1942   22.4541 C.3     101      M_A    0.0000
    710 O         246.5248  242.7801   22.3056 O.3     101      M_A    0.0000
    711 H         244.7384  244.8484   21.7077 H       101      M_A    0.0000
    712 H         245.8600  244.3234   20.4437 H       101      M_A    0.0000
    713 H         246.2660  244.5008   23.4399 H       101      M_A    0.0000
    714 H         247.6962  244.4945   22.3706 H       101      M_A    0.0000
    715 C         247.4432  242.3000   21.3471 C.3     102      M_A    0.0000
    716 C         247.2064  240.8387   20.9865 C.3     102      M_A    0.0000
    717 O         248.1264  240.0316   21.7198 O.3     102      M_A    0.0000
    718 H         247.3468  242.9119   20.4432 H       102      M_A    0.0000
    719 H         248.4605  242.4333   21.7324 H       102      M_A    0.0000
    720 H         247.3820  240.7218   19.9078 H       102      M_A    0.0000
    721 H         246.1758  240.5330   21.2110 H       102      M_A    0.0000
    722 C         247.9262  238.6632   21.4367 C.3     103      M_A    0.0000
    723 C         247.5504  237.8559   22.6730 C.3     103      M_A    0.0000
    724 O         247.6663  236.4674   22.3655 O.3     103      M_A    0.0000
    725 H         247.1220  238.5802   20.6969 H       103      M_A    0.0000
    726 H         248.8380  238.2573   20.9841 H       103      M_A    0.0000
    727 H         246.5101  238.0968   22.9333 H       103      M_A    0.0000
    728 H         248.1945  238.1074   23.5262 H       103      M_A    0.0000
    729 C         246.8601  236.1326   21.2562 C.3     104      M_A    0.0000
    730 C         245.7390  235.1652   21.6148 C.3     104      M_A    0.0000
    731 O         245.8499  234.0089   20.7864 O.3     104      M_A    0.0000
    732 H         246.4230  237.0557   20.8588 H       104      M_A    0.0000
    733 H         247.4945  235.7012   20.4736 H       104      M_A    0.0000
    734 H         244.7810  235.6703   21.4275 H       104      M_A    0.0000
    735 H         245.7838  234.8755   22.6732 H       104      M_A    0.0000
    736 C         244.5925  233.3882   20.6242 C.3     105      M_A    0.0000
    737 C         243.7422  233.4439   21.8873 C.3     105      M_A    0.0000
    738 O         242.7971  232.3755   21.8500 O.3     105      M_A    0.0000
    739 H         244.0610  233.8972   19.8122 H       105      M_A    0.0000
    740 H         244.7473  232.3470   20.3194 H       105      M_A    0.0000
    741 H         243.2168  234.4091   21.9014 H       105      M_A    0.0000
    742 H         244.3620  233.3666   22.7906 H       105      M_A    0.0000
    743 C         241.4958  232.8503   22.1218 C.3     106      M_A    0.0000
    744 C         240.9675  232.3781   23.4706 C.3     106      M_A    0.0000
    745 O         239.5447  232.4845   23.4675 O.3     106      M_A    0.0000
    746 H         241.5211  233.9458   22.1110 H       106      M_A    0.0000
    747 H         240.8244  232.5251   21.3190 H       106      M_A    0.0000
    748 H         241.3906  233.0291   24.2485 H       106      M_A    0.0000
    749 H         241.2669  231.3418   23.6771 H       106      M_A    0.0000
    750 C         238.9682  231.4489   22.7007 C.3     107      M_A    0.0000
    751 C         237.4617  231.6073   22.5371 C.3     107      M_A    0.0000
    752 O         236.8076  230.7808   23.4989 O.3     107      M_A    0.0000
    753 H         239.4381  231.4527   21.7107 H       107      M_A    0.0000
    754 H         239.1970  230.4872   23.1740 H       107      M_A    0.0000
    755 H         237.1940  231.2844   21.5212 H       107      M_A    0.0000
    756 H         237.1528  232.6531   22.6675 H       107      M_A    0.0000
    757 C         235.5876  230.2885   22.9870 C.3     108      M_A    0.0000
    758 C         234.3837  231.0927   23.4615 C.3     108      M_A    0.0000
    759 O         233.4365  230.1982   24.0434 O.3     108      M_A    0.0000
    760 H         235.6346  230.3263   21.8927 H       108      M_A    0.0000
    761 H         235.4783  229.2379   23.2792 H       108      M_A    0.0000
    762 H         233.9413  231.5907   22.5872 H       108      M_A    0.0000
    763 H         234.6767  231.8582   24.1924 H       108      M_A    0.0000
    764 C         233.8635  229.7820   25.3229 C.3     109      M_A    0.0000
    765 C         232.8010  228.9813   26.0655 C.3     109      M_A    0.0000
    766 O         232.0627  229.8685   26.9043 O.3     109      M_A    0.0000
    767 H         234.7588  229.1619   25.2008 H       109      M_A    0.0000
    768 H         234.1473  230.6648   25.9070 H       109      M_A    0.0000
    769 H         233.3114  228.2243   26.6775 H       109      M_A    0.0000
    770 H         232.1232  228.4719   25.3676 H       109      M_A    0.0000
    771 C         230.9169  229.2275   27.4231 C.3     110      M_A    0.0000
    772 C         229.8194  230.2099   27.8126 C.3     110      M_A    0.0000
    773 O         228.7243  229.4783   28.3617 O.3     110      M_A    0.0000
    774 H         230.5307  228.5439   26.6586 H       110      M_A    0.0000
    775 H         231.2094  228.6254   28.2908 H       110      M_A    0.0000
    776 H         229.4989  230.7395   26.9044 H       110      M_A    0.0000
    777 H         230.1823  230.9472   28.5411 H       110      M_A    0.0000
    778 C         229.0207  229.0441   29.6717 C.3     111      M_A    0.0000
    779 C         228.5276  227.6291   29.9477 C.3     111      M_A    0.0000
    780 O         227.1600  227.6915   30.3499 O.3     111      M_A    0.0000
    781 H         230.1078  229.0769   29.8063 H       111      M_A    0.0000
    782 H         228.5755  229.7448   30.3872 H       111      M_A    0.0000
    783 H         229.1383  227.2082   30.7588 H       111      M_A    0.0000
    784 H         228.6301  226.9895   29.0609 H       111      M_A    0.0000
    785 C         226.5753  226.4067   30.3326 C.3     112      M_A    0.0000
    786 C         226.0191  226.0324   28.9644 C.3     112      M_A    0.0000
    787 O         225.0123  225.0361   29.1368 O.3     112      M_A    0.0000
    788 H         227.3413  225.6774   30.6194 H       112      M_A    0.0000
    789 H         225.7805  226.3683   31.0862 H       112      M_A    0.0000
    790 H         226.8445  225.6308   28.3600 H       112      M_A    0.0000
    791 H         225.5988  226.9071   28.4504 H       112      M_A    0.0000
    792 C         225.0175  224.1286   28.0556 C.3     113      M_A    0.0000
    793 C         223.6820  223.4167   27.8791 C.3     113      M_A    0.0000
    794 O         223.7233  222.1827   28.5942 O.3     113      M_A    0.0000
    795 H         225.2497  224.6859   27.1411 H       113      M_A    0.0000
    796 H         225.8177  223.3960   28.2110 H       113      M_A    0.0000
    797 H         223.5384  223.2241   26.8066 H       113      M_A    0.0000
    798 H         222.8488  224.0337   28.2412 H       113      M_A    0.0000
    799 C         222.4831  221.5141   28.5084 C.3     114      M_A    0.0000
    800 C         221.6608  221.6344   29.7855 C.3     114      M_A    0.0000
    801 O         220.7946  220.5045   29.8801 O.3     114      M_A    0.0000
    802 H         221.9169  221.9470   27.6760 H       114      M_A    0.0000
    803 H         222.6641  220.4588   28.2746 H       114      M_A    0.0000
    804 H         221.0676  222.5575   29.7224 H       114      M_A    0.0000
    805 H         222.3055  221.6897   30.6728 H       114      M_A    0.0000
    806 C         219.6649  220.8062   30.6710 C.3     115      M_A    0.0000
    807 C         218.3698  220.2685   30.0753 C.3     115      M_A    0.0000
    808 O         217.2901  221.0963   30.5054 O.3     115      M_A    0.0000
    809 H         219.8130  220.3647   31.6630 H       115      M_A    0.0000
    810 H         219.5996  221.8929   30.7967 H       115      M_A    0.0000
    811 H         218.2259  219.2430   30.4436 H       115      M_A    0.0000
    812 H         218.4129  220.2462   28.9781 H       115      M_A    0.0000
    813 C         216.1331  220.8478   29.7359 C.3     116      M_A    0.0000
    814 C         215.0118  221.8385   30.0235 C.3     116      M_A    0.0000
    815 O         213.8820  221.1202   30.5168 O.3     116      M_A    0.0000
    816 H         216.4053  220.9130   28.6764 H       116      M_A    0.0000
    817 H         215.7911  219.8247   29.9293 H       116      M_A    0.0000
    818 H         214.7536  222.3428   29.0817 H       116      M_A    0.0000
    819 H         215.3247  222.5959   30.7546 H       116      M_A    0.0000
    820 C         212.7592  221.3233   29.6856 C.3     117      M_A    0.0000
    821 C         211.4396  221.1412   30.4251 C.3     117      M_A    0.0000
    822 O         211.0824  219.7602   30.3903 O.3     117      M_A    0.0000
    823 H         212.8080  222.3427   29.2863 H       117      M_A    0.0000
    824 H         212.8152  220.6309   28.8380 H       117      M_A    0.0000
    825 H         210.6753  221.7394   29.9095 H       117      M_A    0.0000
    826 H         211.5133  221.4846   31.4657 H       117      M_A    0.0000
    827 C         210.5961  219.3383   31.6465 C.3     118      M_A    0.0000
    828 C         209.0743  219.3417   31.7191 C.3     118      M_A    0.0000
    829 O         208.6792  219.7765   33.0194 O.3     118      M_A    0.0000
    830 H         210.9611  218.3218   31.8319 H       118      M_A    0.0000
    831 H         211.0122  219.9883   32.4247 H       118      M_A    0.0000
    832 H         208.7231  218.3151   31.5441 H       118      M_A    0.0000
    833 H         208.6386  219.9985   30.9543 H       118      M_A    0.0000
    834 C         208.9316  221.1557   33.1830 C.3     119      M_A    0.0000
    835 C         209.3050  221.5192   34.6147 C.3     119      M_A    0.0000
    836 O         208.2404  222.2776   35.1867 O.3     119      M_A    0.0000
    837 H         209.7552  221.4351   32.5163 H       119      M_A    0.0000
    838 H         208.0447  221.7184   32.8701 H       119      M_A    0.0000
    839 H         210.2220  222.1242   34.5838 H       119      M_A    0.0000
    840 H         209.4948  220.6220   35.2189 H       119      M_A    0.0000
    841 C         208.0561  221.9348   36.5436 C.3     120      M_A    0.0000
    842 C         208.6516  222.9642   37.4961 C.3     120      M_A    0.0000
    843 O         209.1539  222.2862   38.6467 O.3     120      M_A    0.0000
    844 H         206.9800  221.8519   36.7334 H       120      M_A    0.0000
    845 H         208.5027  220.9506   36.7249 H       120      M_A    0.0000
    846 H         207.8519  223.6588   37.7895 H       120      M_A    0.0000
    847 H         209.4563  223.5360   37.0151 H       120      M_A    0.0000
    848 C         209.3506  223.1903   39.7128 C.3     121      M_A    0.0000
    849 C         209.7904  222.4982   40.9970 C.3     121      M_A    0.0000
    850 O         209.1319  223.1190   42.1000 O.3     121      M_A    0.0000
    851 H         210.1195  223.9115   39.4136 H       121      M_A    0.0000
    852 H         208.4214  223.7459   39.8831 H       121      M_A    0.0000
    853 H         210.8785  222.6194   41.0932 H       121      M_A    0.0000
    854 H         209.5558  221.4256   40.9740 H       121      M_A    0.0000
    855 C         207.8874  223.6535   41.7022 C.3     122      M_A    0.0000
    856 C         207.0051  224.0325   42.8851 C.3     122      M_A    0.0000
    857 O         205.9169  223.1125   42.9576 O.3     122      M_A    0.0000
    858 H         208.0757  224.5465   41.0955 H       122      M_A    0.0000
    859 H         207.3737  222.9224   41.0676 H       122      M_A    0.0000
    860 H         206.6255  225.0497   42.7142 H       122      M_A    0.0000
    861 H         207.5710  224.0209   43.8263 H       122      M_A    0.0000
    862 C         205.8539  222.5131   44.2341 C.3     123      M_A    0.0000
    863 C         205.2086  221.1333   44.2045 C.3     123      M_A    0.0000
    864 O         203.9107  221.2225   44.7906 O.3     123      M_A    0.0000
    865 H         206.8752  222.4225   44.6212 H       123      M_A    0.0000
    866 H         205.2995  223.1744   44.9097 H       123      M_A    0.0000
    867 H         205.8389  220.4503   44.7912 H       123      M_A    0.0000
    868 H         205.1325  220.7490   43.1786 H       123      M_A    0.0000
    869 C         203.1700  220.0462   44.5453 C.3     124      M_A    0.0000
    870 C         201.6715  220.3042   44.4495 C.3     124      M_A    0.0000
    871 O         201.0397  219.7683   45.6113 O.3     124      M_A    0.0000
    872 H         203.5194  219.6114   43.6019 H       124      M_A    0.0000
    873 H         203.3780  219.3231   45.3421 H       124      M_A    0.0000
    874 H         201.2956  219.7964   43.5502 H       124      M_A    0.0000
    875 H         201.4548  221.3776   44.3648 H       124      M_A    0.0000
    876 C         199.6438  219.6759   45.4229 C.3     125      M_A    0.0000
    877 C         199.0406  220.9562   44.8588 C.3     125      M_A    0.0000
    878 O         197.7708  221.1728   45.4724 O.3     125      M_A    0.0000
    879 H         199.4452  218.8508   44.7295 H       125      M_A    0.0000
    880 H         199.1722  219.4267   46.3803 H       125      M_A    0.0000
    881 H         198.9159  220.8246   43.7748 H       125      M_A    0.0000
    882 H         199.6962  221.8193   45.0360 H       125      M_A    0.0000
    883 C         196.7783  221.4079   44.4965 C.3     126      M_A    0.0000
    884 C         195.6910  222.3589   44.9810 C.3     126      M_A    0.0000
    885 O         194.4184  221.7634   44.7331 O.3     126      M_A    0.0000
    886 H         197.2618  221.8378   43.6120 H       126      M_A    0.0000
    887 H         196.3366  220.4492   44.2014 H       126      M_A    0.0000
    888 H         195.7828  223.2968   44.4155 H       126      M_A    0.0000
    889 H         195.8008  222.5803   46.0511 H       126      M_A    0.0000
    890 C         193.4611  222.7483   44.4069 C.3     127      M_A    0.0000
    891 C         192.2946  222.7815   45.3865 C.3     127      M_A    0.0000
    892 O         191.1958  222.0741   44.8137 O.3     127      M_A    0.0000
    893 H         193.9589  223.7246   44.4098 H       127      M_A    0.0000
    894 H         193.0949  222.5645   43.3905 H       127      M_A    0.0000
    895 H         192.0189  223.8325   45.5516 H       127      M_A    0.0000
    896 H         192.5690  222.3333   46.3508 H       127      M_A    0.0000
    897 C         190.1298  221.9775   45.7339 C.3     128      M_A    0.0000
    898 C         190.1037  220.6411   46.4652 C.3     128      M_A    0.0000
    899 O         188.7527  220.3310   46.8036 O.3     128      M_A    0.0000
    900 H         190.2356  222.7848   46.4673 H       128      M_A    0.0000
    901 H         189.1853  222.1340   45.2006 H       128      M_A    0.0000
    902 H         190.7057  220.7417   47.3792 H       128      M_A    0.0000
    903 H         190.5307  219.8390   45.8484 H       128      M_A    0.0000
    904 C         188.0978  221.4640   47.3328 C.3     129      M_A    0.0000
    905 C         187.1422  221.1144   48.4667 C.3     129      M_A    0.0000
    906 O         185.8457  221.6147   48.1431 O.3     129      M_A    0.0000
    907 H         188.8598  222.1568   47.7075 H       129      M_A    0.0000
    908 H         187.5561  221.9700   46.5256 H       129      M_A    0.0000
    909 H         187.5116  221.5952   49.3834 H       129      M_A    0.0000
    910 H         187.0965  220.0296   48.6315 H       129      M_A    0.0000
    911 C         184.8486  220.9193   48.8608 C.3     130      M_A    0.0000
    912 C         183.4762  221.5702   48.7413 C.3     130      M_A    0.0000
    913 O         182.8887  221.6409   50.0396 O.3     130      M_A    0.0000
    914 H         184.7951  219.8967   48.4704 H       130      M_A    0.0000
    915 H         185.1466  220.8583   49.9137 H       130      M_A    0.0000
    916 H         182.8584  220.9428   48.0836 H       130      M_A    0.0000
    917 H         183.5469  222.5756   48.3050 H       130      M_A    0.0000
    918 C         181.4914  221.4541   49.9662 C.3     131      M_A    0.0000
    919 C         180.7154  222.5115   50.7416 C.3     131      M_A    0.0000
    920 O         179.4863  221.9410   51.1885 O.3     131      M_A    0.0000
    921 H         181.1949  221.4939   48.9119 H       131      M_A    0.0000
    922 H         181.2466  220.4546   50.3432 H       131      M_A    0.0000
    923 H         180.5139  223.3517   50.0624 H       131      M_A    0.0000
    924 H         181.2921  222.8822   51.5995 H       131      M_A    0.0000
    925 C         178.4663  222.9162   51.2225 C.3     132      M_A    0.0000
    926 C         177.5737  222.7909   52.4509 C.3     132      M_A    0.0000
    927 O         176.2112  222.8862   52.0381 O.3     132      M_A    0.0000
    928 H         178.9376  223.9056   51.2219 H       132      M_A    0.0000
    929 H         177.8654  222.8334   50.3097 H       132      M_A    0.0000
    930 H         177.8173  223.6166   53.1341 H       132      M_A    0.0000
    931 H         177.7429  221.8396   52.9731 H       132      M_A    0.0000
    932 C         175.3612  222.2551   52.9718 C.3     133      M_A    0.0000
    933 C         173.9631  222.8602   52.9969 C.3     133      M_A    0.0000
    934 O         173.3844  222.6221   54.2792 O.3     133      M_A    0.0000
    935 H         175.2875  221.1944   52.7063 H       133      M_A    0.0000
    936 H         175.8173  222.3182   53.9663 H       133      M_A    0.0000
    937 H         173.3650  222.3668   52.2180 H       133      M_A    0.0000
    938 H         173.9901  223.9385   52.7906 H       133      M_A    0.0000
    939 C         171.9752  222.6140   54.1974 C.3     134      M_A    0.0000
    940 C         171.3360  223.7749   54.9492 C.3     134      M_A    0.0000
    941 O         169.9781  223.4426   55.2350 O.3     134      M_A    0.0000
    942 H         171.6927  222.6733   53.1402 H       134      M_A    0.0000
    943 H         171.6025  221.6605   54.5884 H       134      M_A    0.0000
    944 H         171.3768  224.6626   54.3026 H       134      M_A    0.0000
    945 H         171.8742  223.9927   55.8814 H       134      M_A    0.0000
    946 C         169.2534  224.5911   55.6200 C.3     135      M_A    0.0000
    947 C         168.0912  224.2682   56.5509 C.3     135      M_A    0.0000
    948 O         166.9416  223.9688   55.7606 O.3     135      M_A    0.0000
    949 H         169.9408  225.2755   56.1298 H       135      M_A    0.0000
    950 H         168.8863  225.0974   54.7201 H       135      M_A    0.0000
    951 H         167.8982  225.1530   57.1736 H       135      M_A    0.0000
    952 H         168.3279  223.4201   57.2072 H       135      M_A    0.0000
    953 C         165.9130  223.4264   56.5609 C.3     136      M_A    0.0000
    954 C         166.0205  221.9140   56.7113 C.3     136      M_A    0.0000
    955 O         164.7279  221.3912   57.0138 O.3     136      M_A    0.0000
    956 H         165.9694  223.8896   57.5525 H       136      M_A    0.0000
    957 H         164.9444  223.6939   56.1234 H       136      M_A    0.0000
    958 H         166.7135  221.7028   57.5378 H       136      M_A    0.0000
    959 H         166.4103  221.4477   55.7965 H       136      M_A    0.0000
    960 C         163.9122  221.3785   55.8618 C.3     137      M_A    0.0000
    961 C         162.4592  221.0429   56.1740 C.3     137      M_A    0.0000
    962 O         162.2354  219.6641   55.8831 O.3     137      M_A    0.0000
    963 H         163.9588  222.3701   55.3976 H       137      M_A    0.0000
    964 H         164.3205  220.6564   55.1457 H       137      M_A    0.0000
    965 H         161.8206  221.6694   55.5354 H       137      M_A    0.0000
    966 H         162.2176  221.2498   57.2251 H       137      M_A    0.0000
    967 C         160.8531  219.3830   55.8294 C.3     138      M_A    0.0000
    968 C         160.2794  218.9923   57.1857 C.3     138      M_A    0.0000
    969 O         158.9364  218.5463   57.0031 O.3     138      M_A    0.0000
    970 H         160.3350  220.2777   55.4659 H       138      M_A    0.0000
    971 H         160.6819  218.5811   55.1023 H       138      M_A    0.0000
    972 H         160.2948  219.8821   57.8307 H       138      M_A    0.0000
    973 H         160.8768  218.2024   57.6603 H       138      M_A    0.0000
    974 C         158.3619  219.1461   55.8616 C.3     139      M_A    0.0000
    975 C         156.9473  219.6530   56.1130 C.3     139      M_A    0.0000
    976 O         156.1367  219.3252   54.9854 O.3     139      M_A    0.0000
    977 H         158.9957  219.9879   55.5608 H       139      M_A    0.0000
    978 H         158.3619  218.4196   55.0411 H       139      M_A    0.0000
    979 H         156.9939  220.7441   56.2368 H       139      M_A    0.0000
    980 H         156.5203  219.2128   57.0240 H       139      M_A    0.0000
    981 C         154.9883  220.1449   54.9408 C.3     140      M_A    0.0000
    982 C         154.2711  220.2257   56.2826 C.3     140      M_A    0.0000
    983 O         153.4065  221.3607   56.2716 O.3     140      M_A    0.0000
    984 H         155.2973  221.1521   54.6388 H       140      M_A    0.0000
    985 H         154.3079  219.7611   54.1720 H       140      M_A    0.0000
    986 H         155.0312  220.3408   57.0681 H       140      M_A    0.0000
    987 H         153.6926  219.3139   56.4827 H       140      M_A    0.0000
    988 C         152.7552  221.5044   57.5158 C.3     141      M_A    0.0000
    989 C         151.6978  222.6012   57.5026 C.3     141      M_A    0.0000
    990 O         150.5387  222.1275   58.1869 O.3     141      M_A    0.0000
    991 H         152.2780  220.5500   57.7654 H       141      M_A    0.0000
    992 H         153.5054  221.7130   58.2870 H       141      M_A    0.0000
    993 H         151.4505  222.8227   56.4549 H       141      M_A    0.0000
    994 H         152.0673  223.5190   57.9793 H       141      M_A    0.0000
    995 C         149.5696  223.1484   58.2932 C.3     142      M_A    0.0000
    996 C         148.2690  222.8009   57.5796 C.3     142      M_A    0.0000
    997 O         147.7228  223.9933   57.0178 O.3     142      M_A    0.0000
    998 H         149.3614  223.3143   59.3563 H       142      M_A    0.0000
    999 H         149.9863  224.0770   57.8869 H       142      M_A    0.0000
   1000 H         147.5745  222.3839   58.3223 H       142      M_A    0.0000
   1001 H         148.4324  222.0540   56.7913 H       142      M_A    0.0000
   1002 C         146.3752  223.7981   56.6456 C.3     143      M_A    0.0000
   1003 C         145.5818  225.0982   56.6064 C.3     143      M_A    0.0000
   1004 O         144.3231  224.8855   57.2438 O.3     143      M_A    0.0000
   1005 H         146.3572  223.3377   55.6513 H       143      M_A    0.0000
   1006 H         145.9117  223.0945   57.3465 H       143      M_A    0.0000
   1007 H         145.4275  225.3710   55.5530 H       143      M_A    0.0000
   1008 H         146.1235  225.9127   57.1057 H       143      M_A    0.0000
   1009 C         143.3070  225.6263   56.6023 C.3     144      M_A    0.0000
   1010 C         142.1948  226.0462   57.5552 C.3     144      M_A    0.0000
   1011 O         141.0800  225.1753   57.3695 O.3     144      M_A    0.0000
   1012 H         143.7605  226.5226   56.1642 H       144      M_A    0.0000
   1013 H         142.8949  225.0272   55.7823 H       144      M_A    0.0000
   1014 H         141.9090  227.0788   57.3103 H       144      M_A    0.0000
   1015 H         142.5293  226.0116   58.6007 H       144      M_A    0.0000
   1016 C         140.0606  225.4631   58.3026 C.3     145      M_A    0.0000
   1017 C         139.1818  224.2556   58.6043 C.3     145      M_A    0.0000
   1018 O         137.8175  224.6732   58.6123 O.3     145      M_A    0.0000
   1019 H         140.5320  225.8037   59.2314 H       145      M_A    0.0000
   1020 H         139.4496  226.2874   57.9177 H       145      M_A    0.0000
   1021 H         139.4619  223.8700   59.5947 H       145      M_A    0.0000
   1022 H         139.3272  223.4594   57.8620 H       145      M_A    0.0000
   1023 C         137.0381  223.8178   59.4207 C.3     146      M_A    0.0000
   1024 C         135.7063  223.4527   58.7770 C.3     146      M_A    0.0000
   1025 O         134.7152  223.3570   59.7990 O.3     146      M_A    0.0000
   1026 H         137.6110  222.9014   59.6023 H       146      M_A    0.0000
   1027 H         136.8687  224.3017   60.3893 H       146      M_A    0.0000
   1028 H         135.8250  222.4810   58.2775 H       146      M_A    0.0000
   1029 H         135.4052  224.1989   58.0296 H       146      M_A    0.0000
   1030 C         134.3303  224.6404   60.2432 C.3     147      M_A    0.0000
   1031 C         133.0993  224.6074   61.1403 C.3     147      M_A    0.0000
   1032 O         131.9333  224.6516   60.3191 O.3     147      M_A    0.0000
   1033 H         135.1676  225.0759   60.8001 H       147      M_A    0.0000
   1034 H         134.1441  225.2769   59.3706 H       147      M_A    0.0000
   1035 H         133.1312  225.4902   61.7942 H       147      M_A    0.0000
   1036 H         133.0845  223.7053   61.7664 H       147      M_A    0.0000
   1037 C         131.7092  223.4018   59.7024 C.3     148      M_A    0.0000
   1038 C         130.3060  222.8646   59.9553 C.3     148      M_A    0.0000
   1039 O         130.3732  221.8735   60.9795 O.3     148      M_A    0.0000
   1040 H         131.8581  223.5201   58.6232 H       148      M_A    0.0000
   1041 H         132.4574  222.6878   60.0651 H       148      M_A    0.0000
   1042 H         129.9406  222.4148   59.0215 H       148      M_A    0.0000
   1043 H         129.6180  223.6672   60.2529 H       148      M_A    0.0000
   1044 C         129.0791  221.5241   61.4219 C.3     149      M_A    0.0000
   1045 C         128.3928  222.6526   62.1815 C.3     149      M_A    0.0000
   1046 O         127.0548  222.2563   62.4791 O.3     149      M_A    0.0000
   1047 H         128.4755  221.2639   60.5451 H       149      M_A    0.0000
   1048 H         129.1490  220.6318   62.0544 H       149      M_A    0.0000
   1049 H         128.3857  223.5420   61.5359 H       149      M_A    0.0000
   1050 H         128.9287  222.8944   63.1091 H       149      M_A    0.0000
   1051 C         126.1893  223.3714   62.4671 C.3     150      M_A    0.0000
   1052 C         124.9537  223.1660   63.3346 C.3     150      M_A    0.0000
   1053 O         123.8627  222.7903   62.4953 O.3     150      M_A    0.0000
   1054 H         126.7451  224.2409   62.8359 H       150      M_A    0.0000
   1055 H         125.8934  223.5799   61.4327 H       150      M_A    0.0000
   1056 H         124.7296  224.1170   63.8380 H       150      M_A    0.0000
   1057 H         125.1243  222.3949   64.0977 H       150      M_A    0.0000
   1058 C         123.2162  221.6418   63.0009 C.3     151      M_A    0.0000
   1059 C         121.7172  221.8436   63.1840 C.3     151      M_A    0.0000
   1060 O         121.2935  221.1095   64.3318 O.3     151      M_A    0.0000
   1061 H         123.3833  220.8172   62.2987 H       151      M_A    0.0000
   1062 H         123.6788  221.3652   63.9551 H       151      M_A    0.0000
   1063 H         121.2104  221.4619   62.2865 H       151      M_A    0.0000
   1064 H         121.4682  222.9065   63.3042 H       151      M_A    0.0000
   1065 C         120.1319  221.6842   64.8913 C.3     152      M_A    0.0000
   1066 C         119.1153  220.6402   65.3363 C.3     152      M_A    0.0000
   1067 O         117.8396  221.2673   65.4597 O.3     152      M_A    0.0000
   1068 H         120.4299  222.2856   65.7576 H       152      M_A    0.0000
   1069 H         119.6809  222.3604   64.1561 H       152      M_A    0.0000
   1070 H         119.4360  220.2471   66.3113 H       152      M_A    0.0000
   1071 H         119.0579  219.8078   64.6222 H       152      M_A    0.0000
   1072 C         117.1169  220.7202   66.5419 C.3     153      M_A    0.0000
   1073 C         115.7205  220.2592   66.1431 C.3     153      M_A    0.0000
   1074 O         114.9156  220.1688   67.3178 O.3     153      M_A    0.0000
   1075 H         117.6788  219.8639   66.9317 H       153      M_A    0.0000
   1076 H         117.0534  221.4680   67.3405 H       153      M_A    0.0000
   1077 H         115.8102  219.2699   65.6728 H       153      M_A    0.0000
   1078 H         115.2608  220.9508   65.4244 H       153      M_A    0.0000
   1079 C         113.7374  219.4352   67.0606 C.3     154      M_A    0.0000
   1080 C         112.9274  219.1626   68.3219 C.3     154      M_A    0.0000
   1081 O         112.3064  217.8839   68.1995 O.3     154      M_A    0.0000
   1082 H         113.1228  220.0088   66.3575 H       154      M_A    0.0000
   1083 H         114.0063  218.4909   66.5737 H       154      M_A    0.0000
   1084 H         112.1606  219.9452   68.4095 H       154      M_A    0.0000
   1085 H         113.5616  219.1887   69.2182 H       154      M_A    0.0000
   1086 C         111.0456  217.8783   68.8343 C.3     155      M_A    0.0000
   1087 C         110.6328  216.4908   69.3096 C.3     155      M_A    0.0000
   1088 O         109.2296  216.3351   69.1036 O.3     155      M_A    0.0000
   1089 H         111.0927  218.5527   69.6968 H       155      M_A    0.0000
   1090 H         110.2970  218.2773   68.1404 H       155      M_A    0.0000
   1091 H         110.8652  216.4152   70.3812 H       155      M_A    0.0000
   1092 H         111.1813  215.7046   68.7737 H       155      M_A    0.0000
   1093 C         108.9563  216.0000   67.7598 C.3     156      M_A    0.0000
   1094 C         107.5797  216.4686   67.3053 C.3     156      M_A    0.0000
   1095 O         106.6700  215.3732   67.3972 O.3     156      M_A    0.0000
   1096 H         109.7201  216.4669   67.1277 H       156      M_A    0.0000
   1097 H         109.0435  214.9141   67.6400 H       156      M_A    0.0000
   1098 H         107.6613  216.8017   66.2611 H       156      M_A    0.0000
   1099 H         107.2208  217.3079   67.9160 H       156      M_A    0.0000
   1100 C         105.4978  215.6339   66.6552 C.3     157      M_A    0.0000
   1101 C         104.9619  217.0426   66.8783 C.3     157      M_A    0.0000
   1102 O         103.5729  216.9592   67.1936 O.3     157      M_A    0.0000
   1103 H         105.7286  215.5029   65.5919 H       157      M_A    0.0000
   1104 H         104.7357  214.8936   66.9238 H       157      M_A    0.0000
   1105 H         105.1019  217.6111   65.9481 H       157      M_A    0.0000
   1106 H         105.5015  217.5525   67.6875 H       157      M_A    0.0000
   1107 C         102.9692  218.2337   67.1313 C.3     158      M_A    0.0000
   1108 C         101.7266  218.3391   68.0066 C.3     158      M_A    0.0000
   1109 O         100.9757  219.4820   67.5995 O.3     158      M_A    0.0000
   1110 H         103.7034  218.9775   67.4610 H       158      M_A    0.0000
   1111 H         102.7159  218.4559   66.0884 H       158      M_A    0.0000
   1112 H         102.0539  218.4572   69.0491 H       158      M_A    0.0000
   1113 H         101.1068  217.4355   67.9319 H       158      M_A    0.0000
   1114 C         100.2958  219.2275   66.3888 C.3     159      M_A    0.0000
   1115 C          99.5849  220.4598   65.8435 C.3     159      M_A    0.0000
   1116 O          98.2740  220.5173   66.4038 O.3     159      M_A    0.0000
   1117 H         101.0278  218.8806   65.6507 H       159      M_A    0.0000
   1118 H          99.5758  218.4171   66.5496 H       159      M_A    0.0000
   1119 H          99.5218  220.3604   64.7507 H       159      M_A    0.0000
   1120 H         100.1369  221.3787   66.0825 H       159      M_A    0.0000
   1121 C          98.1851  221.5506   67.3614 C.3     160      M_A    0.0000
   1122 C          96.7643  222.0737   67.5316 C.3     160      M_A    0.0000
   1123 O          96.8128  223.4929   67.6706 O.3     160      M_A    0.0000
   1124 H          98.5400  221.1597   68.3218 H       160      M_A    0.0000
   1125 H          98.8546  222.3665   67.0664 H       160      M_A    0.0000
   1126 H          96.3420  221.6221   68.4402 H       160      M_A    0.0000
   1127 H          96.1322  221.8009   66.6759 H       160      M_A    0.0000
   1128 C          97.3612  223.8538   68.9203 C.3     161      M_A    0.0000
   1129 C          96.3849  224.6413   69.7853 C.3     161      M_A    0.0000
   1130 O          96.4953  226.0252   69.4561 O.3     161      M_A    0.0000
   1131 H          97.6469  222.9365   69.4473 H       161      M_A    0.0000
   1132 H          98.2726  224.4387   68.7523 H       161      M_A    0.0000
   1133 H          96.6591  224.4831   70.8379 H       161      M_A    0.0000
   1134 H          95.3519  224.3000   69.6350 H       161      M_A    0.0000
   1135 C          95.3025  226.7105   69.7726 C.3     162      M_A    0.0000
   1136 C          94.6379  227.3296   68.5493 C.3     162      M_A    0.0000
   1137 O          94.0347  228.5647   68.9322 O.3     162      M_A    0.0000
   1138 H          94.6096  225.9979   70.2342 H       162      M_A    0.0000
   1139 H          95.5249  227.4863   70.5141 H       162      M_A    0.0000
   1140 H          93.8684  226.6317   68.1905 H       162      M_A    0.0000
   1141 H          95.3635  227.4995   67.7426 H       162      M_A    0.0000
   1142 C          93.5559  228.4966   70.2584 C.3     163      M_A    0.0000
   1143 C          92.0347  228.5328   70.3368 C.3     163      M_A    0.0000
   1144 O          91.6360  229.7725   70.9199 O.3     163      M_A    0.0000
   1145 H          93.9152  227.5627   70.7053 H       163      M_A    0.0000
   1146 H          93.9830  229.3263   70.8330 H       163      M_A    0.0000
   1147 H          91.7068  227.6973   70.9711 H       163      M_A    0.0000
   1148 H          91.5800  228.4208   69.3434 H       163      M_A    0.0000
   1149 C          90.2569  229.7622   71.2208 C.3     164      M_A    0.0000
   1150 C          89.3933  229.4330   70.0095 C.3     164      M_A    0.0000
   1151 O          88.0213  229.5832   70.3713 O.3     164      M_A    0.0000
   1152 H          90.0814  229.0119   72.0001 H       164      M_A    0.0000
   1153 H          89.9756  230.7391   71.6302 H       164      M_A    0.0000
   1154 H          89.5935  228.3912   69.7221 H       164      M_A    0.0000
   1155 H          89.6317  230.0854   69.1589 H       164      M_A    0.0000
   1156 C          87.8513  229.4211   71.7633 C.3     165      M_A    0.0000
   1157 C          86.4715  228.8884   72.1290 C.3     165      M_A    0.0000
   1158 O          85.6275  229.9910   72.4571 O.3     165      M_A    0.0000
   1159 H          88.6127  228.7195   72.1225 H       165      M_A    0.0000
   1160 H          88.0268  230.3838   72.2567 H       165      M_A    0.0000
   1161 H          86.5819  228.2281   73.0006 H       165      M_A    0.0000
   1162 H          86.0334  228.3119   71.3033 H       165      M_A    0.0000
   1163 C          84.2769  229.5851   72.5187 C.3     166      M_A    0.0000
   1164 C          83.3125  230.6852   72.0930 C.3     166      M_A    0.0000
   1165 O          82.4291  230.9643   73.1782 O.3     166      M_A    0.0000
   1166 H          84.1481  228.7206   71.8576 H       166      M_A    0.0000
   1167 H          84.0504  229.2594   73.5403 H       166      M_A    0.0000
   1168 H          82.7406  230.3203   71.2282 H       166      M_A    0.0000
   1169 H          83.8497  231.5974   71.8009 H       166      M_A    0.0000
   1170 C          82.8378  232.1257   73.8687 C.3     167      M_A    0.0000
   1171 C          81.6989  232.7842   74.6371 C.3     167      M_A    0.0000
   1172 O          82.0753  234.1234   74.9547 O.3     167      M_A    0.0000
   1173 H          83.6296  231.8455   74.5726 H       167      M_A    0.0000
   1174 H          83.2667  232.8334   73.1501 H       167      M_A    0.0000
   1175 H          81.5358  232.2113   75.5608 H       167      M_A    0.0000
   1176 H          80.7689  232.7833   74.0529 H       167      M_A    0.0000
   1177 C          80.9363  234.9505   75.0606 C.3     168      M_A    0.0000
   1178 C          80.8069  235.6000   76.4328 C.3     168      M_A    0.0000
   1179 O          79.7105  235.0003   77.1213 O.3     168      M_A    0.0000
   1180 H          81.0100  235.7349   74.2988 H       168      M_A    0.0000
   1181 H          80.0433  234.3549   74.8396 H       168      M_A    0.0000
   1182 H          80.6157  236.6722   76.2849 H       168      M_A    0.0000
   1183 H          81.7282  235.4837   77.0190 H       168      M_A    0.0000
   1184 C          79.4285  235.6985   78.3153 C.3     169      M_A    0.0000
   1185 C          79.1474  234.7676   79.4883 C.3     169      M_A    0.0000
   1186 O          77.7702  234.8817   79.8431 O.3     169      M_A    0.0000
   1187 H          80.2925  236.3279   78.5568 H       169      M_A    0.0000
   1188 H          78.5717  236.3604   78.1455 H       169      M_A    0.0000
   1189 H          79.7792  235.0820   80.3309 H       169      M_A    0.0000
   1190 H          79.3864  233.7253   79.2382 H       169      M_A    0.0000
   1191 C          77.5126  236.1300   80.4498 C.3     170      M_A    0.0000
   1192 C          76.6095  236.0147   81.6716 C.3     170      M_A    0.0000
   1193 O          75.2504  236.0111   81.2372 O.3     170      M_A    0.0000
   1194 H          78.4702  236.5683   80.7527 H       170      M_A    0.0000
   1195 H          77.0604  236.7985   79.7084 H       170      M_A    0.0000
   1196 H          76.7952  236.8860   82.3153 H       170      M_A    0.0000
   1197 H          76.8242  235.1019   82.2432 H       170      M_A    0.0000
   1198 C          74.9106  234.7637   80.6704 C.3     171      M_A    0.0000
   1199 C          73.4061  234.5263   80.6306 C.3     171      M_A    0.0000
   1200 O          73.1583  233.1315   80.8003 O.3     171      M_A    0.0000
   1201 H          75.3052  234.7323   79.6485 H       171      M_A    0.0000
   1202 H          75.4028  233.9684   81.2417 H       171      M_A    0.0000
   1203 H          73.0356  234.8565   79.6499 H       171      M_A    0.0000
   1204 H          72.8899  235.0982   81.4133 H       171      M_A    0.0000
   1205 C          71.7795  232.8874   80.9793 C.3     172      M_A    0.0000
   1206 C          71.2531  233.4311   82.3017 C.3     172      M_A    0.0000
   1207 O          69.8288  233.3457   82.2969 O.3     172      M_A    0.0000
   1208 H          71.2370  233.3639   80.1550 H       172      M_A    0.0000
   1209 H          71.5990  231.8083   80.9166 H       172      M_A    0.0000
   1210 H          71.5656  234.4814   82.3862 H       172      M_A    0.0000
   1211 H          71.6606  232.8722   83.1548 H       172      M_A    0.0000
   1212 C          69.3328  233.3487   80.9753 C.3     173      M_A    0.0000
   1213 C          68.4417  234.5498   80.6845 C.3     173      M_A    0.0000
   1214 O          67.0814  234.1702   80.8879 O.3     173      M_A    0.0000
   1215 H          70.1867  233.3618   80.2885 H       173      M_A    0.0000
   1216 H          68.7803  232.4183   80.8015 H       173      M_A    0.0000
   1217 H          68.5967  234.8426   79.6365 H       173      M_A    0.0000
   1218 H          68.6951  235.4016   81.3297 H       173      M_A    0.0000
   1219 C          66.2312  234.8641   80.0000 C.3     174      M_A    0.0000
   1220 C          65.1810  235.6984   80.7229 C.3     174      M_A    0.0000
   1221 O          64.0227  234.8926   80.9345 O.3     174      M_A    0.0000
   1222 H          66.8481  235.5243   79.3799 H       174      M_A    0.0000
   1223 H          65.7458  234.1407   79.3350 H       174      M_A    0.0000
   1224 H          64.9294  236.5565   80.0839 H       174      M_A    0.0000
   1225 H          65.5593  236.0731   81.6834 H       174      M_A    0.0000
   1226 C          63.5067  235.0912   82.2334 C.3     175      M_A    0.0000
   1227 C          62.6581  233.9207   82.7142 C.3     175      M_A    0.0000
   1228 O          61.4030  234.4227   83.1709 O.3     175      M_A    0.0000
   1229 H          64.3497  235.2280   82.9201 H       175      M_A    0.0000
   1230 H          62.9162  236.0143   82.2434 H       175      M_A    0.0000
   1231 H          63.1905  233.4321   83.5423 H       175      M_A    0.0000
   1232 H          62.5005  233.1853   81.9138 H       175      M_A    0.0000
   1233 C          60.5188  233.3627   83.4661 C.3     176      M_A    0.0000
   1234 C          59.0813  233.6665   83.0626 C.3     176      M_A    0.0000
   1235 O          58.4369  234.3439   84.1404 O.3     176      M_A    0.0000
   1236 H          60.8606  232.4710   82.9285 H       176      M_A    0.0000
   1237 H          60.5713  233.1449   84.5389 H       176      M_A    0.0000
   1238 H          58.5749  232.7116   82.8635 H       176      M_A    0.0000
   1239 H          59.0423  234.2823   82.1542 H       176      M_A    0.0000
   1240 C          58.3363  235.7262   83.8726 C.3     177      M_A    0.0000
   1241 C          56.8980  236.2280   83.9044 C.3     177      M_A    0.0000
   1242 O          56.8564  237.5345   83.3324 O.3     177      M_A    0.0000
   1243 H          58.9202  236.2652   84.6271 H       177      M_A    0.0000
   1244 H          58.7858  235.9319   82.8944 H       177      M_A    0.0000
   1245 H          56.5748  236.2677   84.9541 H       177      M_A    0.0000
   1246 H          56.2270  235.5548   83.3542 H       177      M_A    0.0000
   1247 C          57.4662  238.4750   84.1905 C.3     178      M_A    0.0000
   1248 C          56.5432  239.6351   84.5419 C.3     178      M_A    0.0000
   1249 O          56.8142  240.7200   83.6557 O.3     178      M_A    0.0000
   1250 H          57.7594  237.9591   85.1118 H       178      M_A    0.0000
   1251 H          58.3791  238.8503   83.7143 H       178      M_A    0.0000
   1252 H          56.7537  239.9355   85.5779 H       178      M_A    0.0000
   1253 H          55.4871  239.3431   84.4672 H       178      M_A    0.0000
   1254 C          55.7182  241.6081   83.6038 C.3     179      M_A    0.0000
   1255 C          54.3984  240.8978   83.3298 C.3     179      M_A    0.0000
   1256 O          53.3768  241.8795   83.1613 O.3     179      M_A    0.0000
   1257 H          55.6519  242.1278   84.5663 H       179      M_A    0.0000
   1258 H          55.9083  242.3618   82.8311 H       179      M_A    0.0000
   1259 H          54.1682  240.2619   84.1961 H       179      M_A    0.0000
   1260 H          54.4630  240.2646   82.4349 H       179      M_A    0.0000
   1261 C          53.0733  242.5007   84.3920 C.3     180      M_A    0.0000
   1262 C          51.7676  243.2849   84.3485 C.3     180      M_A    0.0000
   1263 O          52.0212  244.6203   84.7823 O.3     180      M_A    0.0000
   1264 H          52.9980  241.7224   85.1597 H       180      M_A    0.0000
   1265 H          53.9016  243.1626   84.6693 H       180      M_A    0.0000
   1266 H          51.0556  242.7980   85.0297 H       180      M_A    0.0000
   1267 H          51.3391  243.2927   83.3374 H       180      M_A    0.0000
   1268 C          51.0504  245.5058   84.2665 C.3     181      M_A    0.0000
   1269 C          50.3188  246.2767   85.3581 C.3     181      M_A    0.0000
   1270 O          49.1517  246.8727   84.7936 O.3     181      M_A    0.0000
   1271 H          51.5536  246.2170   83.6018 H       181      M_A    0.0000
   1272 H          50.3348  244.9356   83.6632 H       181      M_A    0.0000
   1273 H          50.9944  247.0579   85.7340 H       181      M_A    0.0000
   1274 H          50.0397  245.6203   86.1932 H       181      M_A    0.0000
   1275 C          48.9506  248.1688   85.3155 C.3     182      M_A    0.0000
   1276 C          47.4841  248.4658   85.6030 C.3     182      M_A    0.0000
   1277 O          47.2063  249.8119   85.2200 O.3     182      M_A    0.0000
   1278 H          49.5227  248.2564   86.2461 H       182      M_A    0.0000
   1279 H          49.3523  248.9027   84.6077 H       182      M_A    0.0000
   1280 H          47.3169  248.3408   86.6820 H       182      M_A    0.0000
   1281 H          46.8226  247.7764   85.0615 H       182      M_A    0.0000
   1282 C          46.0404  250.2831   85.8614 C.3     183      M_A    0.0000
   1283 C          45.1266  251.0611   84.9227 C.3     183      M_A    0.0000
   1284 O          44.3107  251.9364   85.6998 O.3     183      M_A    0.0000
   1285 H          45.4945  249.4197   86.2583 H       183      M_A    0.0000
   1286 H          46.3319  250.9116   86.7106 H       183      M_A    0.0000
   1287 H          44.4961  250.3386   84.3857 H       183      M_A    0.0000
   1288 H          45.7048  251.6383   84.1888 H       183      M_A    0.0000
   1289 C          43.2228  252.4134   84.9371 C.3     184      M_A    0.0000
   1290 C          42.8126  253.8299   85.3200 C.3     184      M_A    0.0000
   1291 O          41.4661  253.8048   85.7913 O.3     184      M_A    0.0000
   1292 H          43.5118  252.3977   83.8802 H       184      M_A    0.0000
   1293 H          42.3756  251.7291   85.0606 H       184      M_A    0.0000
   1294 H          42.8840  254.4592   84.4218 H       184      M_A    0.0000
   1295 H          43.4742  254.2429   86.0933 H       184      M_A    0.0000
   1296 C          40.8531  255.0646   85.6188 C.3     185      M_A    0.0000
   1297 C          40.6920  255.8244   86.9296 C.3     185      M_A    0.0000
   1298 O          39.6082  256.7426   86.7960 O.3     185      M_A    0.0000
   1299 H          41.4724  255.6568   84.9356 H       185      M_A    0.0000
   1300 H          39.8761  254.9219   85.1432 H       185      M_A    0.0000
   1301 H          41.6255  256.3715   87.1226 H       185      M_A    0.0000
   1302 H          40.5045  255.1404   87.7681 H       185      M_A    0.0000
   1303 C          39.9571  257.8052   85.9347 C.3     186      M_A    0.0000
   1304 C          39.7245  257.4722   84.4662 C.3     186      M_A    0.0000
   1305 O          40.9844  257.4504   83.7969 O.3     186      M_A    0.0000
   1306 H          39.3518  258.6780   86.2041 H       186      M_A    0.0000
   1307 H          41.0087  258.0656   86.1004 H       186      M_A    0.0000
   1308 H          39.0852  258.2563   84.0369 H       186      M_A    0.0000
   1309 H          39.2202  256.5035   84.3506 H       186      M_A    0.0000
   1310 C          41.8848  258.3565   84.3977 C.3     187      M_A    0.0000
   1311 C          43.2319  258.4047   83.6873 C.3     187      M_A    0.0000
   1312 O          44.2141  257.8008   84.5278 O.3     187      M_A    0.0000
   1313 H          41.4328  259.3545   84.3759 H       187      M_A    0.0000
   1314 H          42.0223  258.0763   85.4482 H       187      M_A    0.0000
   1315 H          43.4861  259.4594   83.5113 H       187      M_A    0.0000
   1316 H          43.1933  257.8853   82.7205 H       187      M_A    0.0000
   1317 C          44.3906  256.4410   84.1924 C.3     188      M_A    0.0000
   1318 C          44.6161  255.5586   85.4138 C.3     188      M_A    0.0000
   1319 O          45.9323  255.7942   85.9118 O.3     188      M_A    0.0000
   1320 H          43.4935  256.0987   83.6642 H       188      M_A    0.0000
   1321 H          45.2372  256.3527   83.5020 H       188      M_A    0.0000
   1322 H          44.5162  254.5103   85.0993 H       188      M_A    0.0000
   1323 H          43.8749  255.7636   86.1979 H       188      M_A    0.0000
   1324 C          46.4991  254.6008   86.4090 C.3     189      M_A    0.0000
   1325 C          45.5291  253.8048   87.2733 C.3     189      M_A    0.0000
   1326 O          46.2467  253.2511   88.3753 O.3     189      M_A    0.0000
   1327 H          46.8062  253.9855   85.5558 H       189      M_A    0.0000
   1328 H          47.3998  254.8478   86.9825 H       189      M_A    0.0000
   1329 H          45.1075  252.9984   86.6570 H       189      M_A    0.0000
   1330 H          44.7077  254.4359   87.6381 H       189      M_A    0.0000
   1331 C          46.3714  251.8518   88.2375 C.3     190      M_A    0.0000
   1332 C          47.8155  251.3773   88.3412 C.3     190      M_A    0.0000
   1333 O          48.4965  251.7166   87.1341 O.3     190      M_A    0.0000
   1334 H          45.7804  251.3753   89.0278 H       190      M_A    0.0000
   1335 H          45.9437  251.5504   87.2745 H       190      M_A    0.0000
   1336 H          47.8064  250.2861   88.4726 H       190      M_A    0.0000
   1337 H          48.3253  251.8317   89.2013 H       190      M_A    0.0000
   1338 C          49.1466  250.5865   86.5929 C.3     191      M_A    0.0000
   1339 C          50.2335  250.9571   85.5915 C.3     191      M_A    0.0000
   1340 O          50.3095  249.9344   84.5995 O.3     191      M_A    0.0000
   1341 H          49.5968  250.0222   87.4173 H       191      M_A    0.0000
   1342 H          48.3994  249.9413   86.1169 H       191      M_A    0.0000
   1343 H          51.1869  251.0251   86.1339 H       191      M_A    0.0000
   1344 H          50.0275  251.9262   85.1177 H       191      M_A    0.0000
   1345 C          51.4194  249.0939   84.8327 C.3     192      M_A    0.0000
   1346 C          52.1491  248.7142   83.5503 C.3     192      M_A    0.0000
   1347 O          53.4538  248.2454   83.8878 O.3     192      M_A    0.0000
   1348 H          52.1141  249.6197   85.4976 H       192      M_A    0.0000
   1349 H          51.0785  248.1921   85.3538 H       192      M_A    0.0000
   1350 H          52.2243  249.6133   82.9227 H       192      M_A    0.0000
   1351 H          51.6037  247.9404   82.9936 H       192      M_A    0.0000
   1352 C          53.5119  247.8650   85.2460 C.3     193      M_A    0.0000
   1353 C          54.9287  247.5469   85.7073 C.3     193      M_A    0.0000
   1354 O          55.0148  246.1514   85.9918 O.3     193      M_A    0.0000
   1355 H          53.1152  248.6888   85.8502 H       193      M_A    0.0000
   1356 H          52.8614  246.9965   85.3995 H       193      M_A    0.0000
   1357 H          55.1285  248.1284   86.6183 H       193      M_A    0.0000
   1358 H          55.6692  247.8217   84.9443 H       193      M_A    0.0000
   1359 C          54.3901  245.3953   84.9765 C.3     194      M_A    0.0000
   1360 C          54.3626  243.9038   85.2867 C.3     194      M_A    0.0000
   1361 O          53.8733  243.7216   86.6146 O.3     194      M_A    0.0000
   1362 H          53.3616  245.7564   84.8634 H       194      M_A    0.0000
   1363 H          54.9115  245.5739   84.0292 H       194      M_A    0.0000
   1364 H          55.3902  243.5214   85.2099 H       194      M_A    0.0000
   1365 H          53.7294  243.3585   84.5742 H       194      M_A    0.0000
   1366 C          54.7977  244.2164   87.5597 C.3     195      M_A    0.0000
   1367 C          56.0826  243.3990   87.6089 C.3     195      M_A    0.0000
   1368 O          57.0550  244.1202   88.3639 O.3     195      M_A    0.0000
   1369 H          55.0414  245.2507   87.2922 H       195      M_A    0.0000
   1370 H          54.3222  244.2313   88.5470 H       195      M_A    0.0000
   1371 H          56.4365  243.2592   86.5778 H       195      M_A    0.0000
   1372 H          55.9121  242.4123   88.0599 H       195      M_A    0.0000
   1373 C          58.1721  243.3051   88.6474 C.3     196      M_A    0.0000
   1374 C          59.4556  243.8251   88.0118 C.3     196      M_A    0.0000
   1375 O          59.7661  243.0148   86.8792 O.3     196      M_A    0.0000
   1376 H          58.3014  243.2664   89.7349 H       196      M_A    0.0000
   1377 H          57.9654  242.2864   88.3004 H       196      M_A    0.0000
   1378 H          60.2591  243.7505   88.7580 H       196      M_A    0.0000
   1379 H          59.3542  244.8752   87.7068 H       196      M_A    0.0000
   1380 C          59.3332  241.6866   87.0816 C.3     197      M_A    0.0000
   1381 C          60.0569  240.6893   86.1854 C.3     197      M_A    0.0000
   1382 O          60.0910  239.4237   86.8434 O.3     197      M_A    0.0000
   1383 H          59.5140  241.4228   88.1298 H       197      M_A    0.0000
   1384 H          58.2524  241.6351   86.9072 H       197      M_A    0.0000
   1385 H          61.0804  241.0564   86.0251 H       197      M_A    0.0000
   1386 H          59.5601  240.5933   85.2107 H       197      M_A    0.0000
   1387 C          58.8268  238.7981   86.7885 C.3     198      M_A    0.0000
   1388 C          58.9108  237.2867   86.9616 C.3     198      M_A    0.0000
   1389 O          58.0409  236.8988   88.0240 O.3     198      M_A    0.0000
   1390 H          58.2025  239.2156   87.5865 H       198      M_A    0.0000
   1391 H          58.3512  239.0422   85.8317 H       198      M_A    0.0000
   1392 H          59.9492  237.0305   87.2146 H       198      M_A    0.0000
   1393 H          58.6333  236.7620   86.0376 H       198      M_A    0.0000
   1394 C          56.7622  236.5671   87.5265 C.3     199      M_A    0.0000
   1395 C          56.0512  237.7565   86.8930 C.3     199      M_A    0.0000
   1396 O          55.0892  238.2605   87.8185 O.3     199      M_A    0.0000
   1397 H          56.8805  235.7788   86.7746 H       199      M_A    0.0000
   1398 H          56.1580  236.1586   88.3446 H       199      M_A    0.0000
   1399 H          55.5469  237.4053   85.9818 H       199      M_A    0.0000
   1400 H          56.7615  238.5483   86.6200 H       199      M_A    0.0000
   1401 C          55.2771  237.6885   89.0953 C.3     200      M_A    0.0000
   1402 C          55.9999  236.3484   89.0385 C.3     200      M_A    0.0000
   1403 O          55.0272  235.3047   89.0138 O.3     200      M_A    0.0000
   1404 H          55.8655  238.3871   89.7009 H       200      M_A    0.0000
   1405 H          54.3006  237.5701   89.5784 H       200      M_A    0.0000
   1406 H          56.6227  236.2594   89.9396 H       200      M_A    0.0000
   1407 H          56.6475  236.2801   88.1542 H       200      M_A    0.0000
   1408 C          55.0348  234.6445   87.7661 C.3     201      M_A    0.0000
   1409 C          54.2466  235.3943   86.6994 C.3     201      M_A    0.0000
   1410 O          53.5681  234.4441   85.8793 O.3     201      M_A    0.0000
   1411 H          56.0754  234.5438   87.4377 H       201      M_A    0.0000
   1412 H          54.6277  233.6353   87.8961 H       201      M_A    0.0000
   1413 H          54.9586  235.9721   86.0935 H       201      M_A    0.0000
   1414 H          53.5232  236.0873   87.1495 H       201      M_A    0.0000
   1415 C          54.0387  234.5057   84.5499 C.3     202      M_A    0.0000
   1416 C          53.8093  235.8681   83.9076 C.3     202      M_A    0.0000
   1417 O          52.8952  235.7145   82.8228 O.3     202      M_A    0.0000
   1418 H          55.1129  234.2891   84.5559 H       202      M_A    0.0000
   1419 H          53.5449  233.7237   83.9619 H       202      M_A    0.0000
   1420 H          54.7757  236.2354   83.5346 H       202      M_A    0.0000
   1421 H          53.4137  236.5912   84.6334 H       202      M_A    0.0000
   1422 C          53.5067  235.0354   81.7469 C.3     203      M_A    0.0000
   1423 C          54.8289  235.6666   81.3286 C.3     203      M_A    0.0000
   1424 O          55.0505  235.3909   79.9464 O.3     203      M_A    0.0000
   1425 H          53.6860  233.9986   82.0531 H       203      M_A    0.0000
   1426 H          52.8129  235.0166   80.8988 H       203      M_A    0.0000
   1427 H          55.6277  235.2154   81.9339 H       203      M_A    0.0000
   1428 H          54.8265  236.7513   81.5003 H       203      M_A    0.0000
   1429 C          56.1291  236.1553   79.4513 C.3     204      M_A    0.0000
   1430 C          57.0737  235.3413   78.5758 C.3     204      M_A    0.0000
   1431 O          58.4167  235.6223   78.9673 O.3     204      M_A    0.0000
   1432 H          55.7202  236.9842   78.8625 H       204      M_A    0.0000
   1433 H          56.6764  236.5864   80.2973 H       204      M_A    0.0000
   1434 H          56.9161  235.6451   77.5314 H       204      M_A    0.0000
   1435 H          56.8734  234.2651   78.6640 H       204      M_A    0.0000
   1436 C          58.6131  237.0124   79.1155 C.3     205      M_A    0.0000
   1437 C          59.8954  237.3481   79.8668 C.3     205      M_A    0.0000
   1438 O          59.5676  237.6366   81.2252 O.3     205      M_A    0.0000
   1439 H          58.6556  237.4612   78.1166 H       205      M_A    0.0000
   1440 H          57.7483  237.4396   79.6357 H       205      M_A    0.0000
   1441 H          60.3453  238.2322   79.3936 H       205      M_A    0.0000
   1442 H          60.6146  236.5194   79.8211 H       205      M_A    0.0000
   1443 C          60.7348  237.7109   82.0156 C.3     206      M_A    0.0000
   1444 C          61.4727  236.3806   82.1010 C.3     206      M_A    0.0000
   1445 O          62.6401  236.4516   81.2838 O.3     206      M_A    0.0000
   1446 H          61.4003  238.4617   81.5748 H       206      M_A    0.0000
   1447 H          60.4623  238.0561   83.0194 H       206      M_A    0.0000
   1448 H          60.8011  235.5945   81.7281 H       206      M_A    0.0000
   1449 H          61.7520  236.1437   83.1364 H       206      M_A    0.0000
   1450 C          62.2992  236.7764   79.9530 C.3     207      M_A    0.0000
   1451 C          63.3362  237.6680   79.2814 C.3     207      M_A    0.0000
   1452 O          63.0428  237.7406   77.8869 O.3     207      M_A    0.0000
   1453 H          62.2073  235.8437   79.3851 H       207      M_A    0.0000
   1454 H          61.3194  237.2673   79.9474 H       207      M_A    0.0000
   1455 H          64.3252  237.2134   79.4334 H       207      M_A    0.0000
   1456 H          63.3405  238.6757   79.7180 H       207      M_A    0.0000
   1457 C          61.7676  237.1991   77.6161 C.3     208      M_A    0.0000
   1458 C          61.7331  235.6817   77.7482 C.3     208      M_A    0.0000
   1459 O          61.3804  235.1202   76.4848 O.3     208      M_A    0.0000
   1460 H          61.0523  237.6362   78.3219 H       208      M_A    0.0000
   1461 H          61.4628  237.4967   76.6063 H       208      M_A    0.0000
   1462 H          60.9733  235.4228   78.4989 H       208      M_A    0.0000
   1463 H          62.7033  235.2865   78.0778 H       208      M_A    0.0000
   1464 C          60.5782  233.9713   76.6553 C.3     209      M_A    0.0000
   1465 C          61.1040  233.0433   77.7433 C.3     209      M_A    0.0000
   1466 O          60.2592  231.8956   77.8134 O.3     209      M_A    0.0000
   1467 H          59.5657  234.2962   76.9205 H       209      M_A    0.0000
   1468 H          60.5167  233.4364   75.7007 H       209      M_A    0.0000
   1469 H          61.0767  233.5881   78.6975 H       209      M_A    0.0000
   1470 H          62.1392  232.7368   77.5419 H       209      M_A    0.0000
   1471 C          60.1333  231.4490   79.1466 C.3     210      M_A    0.0000
   1472 C          61.4468  231.5159   79.9156 C.3     210      M_A    0.0000
   1473 O          62.0505  230.2231   79.9034 O.3     210      M_A    0.0000
   1474 H          59.3910  232.0783   79.6505 H       210      M_A    0.0000
   1475 H          59.7508  230.4220   79.1422 H       210      M_A    0.0000
   1476 H          61.2212  231.8148   80.9489 H       210      M_A    0.0000
   1477 H          62.1306  232.2546   79.4763 H       210      M_A    0.0000
   1478 C          63.3396  230.2685   80.4770 C.3     211      M_A    0.0000
   1479 C          64.2225  231.3430   79.8547 C.3     211      M_A    0.0000
   1480 O          65.3425  230.7126   79.2350 O.3     211      M_A    0.0000
   1481 H          63.2312  230.4706   81.5487 H       211      M_A    0.0000
   1482 H          63.8105  229.2847   80.3699 H       211      M_A    0.0000
   1483 H          64.5648  232.0097   80.6587 H       211      M_A    0.0000
   1484 H          63.6688  231.9374   79.1157 H       211      M_A    0.0000
   1485 C          65.7057  229.5409   79.9335 C.3     212      M_A    0.0000
   1486 C          66.9204  229.7440   80.8305 C.3     212      M_A    0.0000
   1487 O          67.8190  228.6525   80.6379 O.3     212      M_A    0.0000
   1488 H          64.8539  229.2307   80.5493 H       212      M_A    0.0000
   1489 H          65.9012  228.7420   79.2092 H       212      M_A    0.0000
   1490 H          66.5736  229.7649   81.8732 H       212      M_A    0.0000
   1491 H          67.4276  230.6926   80.6086 H       212      M_A    0.0000
   1492 C          68.8708  228.6998   81.5782 C.3     213      M_A    0.0000
   1493 C          70.1899  228.1902   81.0109 C.3     213      M_A    0.0000
   1494 O          70.3715  226.8357   81.4209 O.3     213      M_A    0.0000
   1495 H          68.9974  229.7399   81.8994 H       213      M_A    0.0000
   1496 H          68.5868  228.1119   82.4584 H       213      M_A    0.0000
   1497 H          70.9982  228.8159   81.4147 H       213      M_A    0.0000
   1498 H          70.2064  228.2569   79.9148 H       213      M_A    0.0000
   1499 C          71.2728  226.1704   80.5620 C.3     214      M_A    0.0000
   1500 C          71.2928  224.6632   80.7842 C.3     214      M_A    0.0000
   1501 O          72.4927  224.1338   80.2223 O.3     214      M_A    0.0000
   1502 H          70.9756  226.3758   79.5274 H       214      M_A    0.0000
   1503 H          72.2759  226.5866   80.7090 H       214      M_A    0.0000
   1504 H          70.4188  224.2328   80.2756 H       214      M_A    0.0000
   1505 H          71.2364  224.4155   81.8526 H       214      M_A    0.0000
   1506 C          72.2730  222.8390   79.7048 C.3     215      M_A    0.0000
   1507 C          73.4297  221.8886   79.9879 C.3     215      M_A    0.0000
   1508 O          74.1626  221.6874   78.7803 O.3     215      M_A    0.0000
   1509 H          71.3605  222.4379   80.1603 H       215      M_A    0.0000
   1510 H          72.1011  222.9128   78.6250 H       215      M_A    0.0000
   1511 H          73.0089  220.9343   80.3346 H       215      M_A    0.0000
   1512 H          74.0923  222.2860   80.7683 H       215      M_A    0.0000
   1513 C          75.3041  220.8910   79.0157 C.3     216      M_A    0.0000
   1514 C          76.5625  221.4634   78.3753 C.3     216      M_A    0.0000
   1515 O          77.5913  220.4761   78.4260 O.3     216      M_A    0.0000
   1516 H          75.4546  220.8189   80.0987 H       216      M_A    0.0000
   1517 H          75.1153  219.8797   78.6379 H       216      M_A    0.0000
   1518 H          76.8644  222.3495   78.9512 H       216      M_A    0.0000
   1519 H          76.3807  221.7643   77.3349 H       216      M_A    0.0000
   1520 C          77.0965  219.2661   78.9588 C.3     217      M_A    0.0000
   1521 C          78.2028  218.3574   79.4801 C.3     217      M_A    0.0000
   1522 O          78.4634  217.3483   78.5056 O.3     217      M_A    0.0000
   1523 H          76.4140  219.5073   79.7815 H       217      M_A    0.0000
   1524 H          76.5165  218.7489   78.1860 H       217      M_A    0.0000
   1525 H          77.8519  217.8955   80.4137 H       217      M_A    0.0000
   1526 H          79.1201  218.9236   79.6900 H       217      M_A    0.0000
   1527 C          79.8401  217.0392   78.4626 C.3     218      M_A    0.0000
   1528 C          80.1404  215.8098   77.6142 C.3     218      M_A    0.0000
   1529 O          81.4275  215.3095   77.9731 O.3     218      M_A    0.0000
   1530 H          80.3723  217.9012   78.0448 H       218      M_A    0.0000
   1531 H          80.2021  216.8887   79.4861 H       218      M_A    0.0000
   1532 H          80.1379  216.1162   76.5587 H       218      M_A    0.0000
   1533 H          79.3804  215.0299   77.7567 H       218      M_A    0.0000
   1534 C          82.4446  216.1775   77.5206 C.3     219      M_A    0.0000
   1535 C          83.5357  215.4505   76.7445 C.3     219      M_A    0.0000
   1536 O          84.5099  214.9675   77.6684 O.3     219      M_A    0.0000
   1537 H          81.9872  216.9333   76.8722 H       219      M_A    0.0000
   1538 H          82.8775  216.6970   78.3831 H       219      M_A    0.0000
   1539 H          83.9981  216.1693   76.0535 H       219      M_A    0.0000
   1540 H          83.1238  214.6160   76.1615 H       219      M_A    0.0000
   1541 C          84.4857  213.5573   77.7279 C.3     220      M_A    0.0000
   1542 C          85.8422  212.9328   77.4255 C.3     220      M_A    0.0000
   1543 O          85.6580  211.5418   77.1668 O.3     220      M_A    0.0000
   1544 H          84.1722  213.2618   78.7355 H       220      M_A    0.0000
   1545 H          83.7337  213.1852   77.0228 H       220      M_A    0.0000
   1546 H          86.4834  213.0686   78.3078 H       220      M_A    0.0000
   1547 H          86.3218  213.4156   76.5635 H       220      M_A    0.0000
   1548 C          86.7468  210.7931   77.6635 C.3     221      M_A    0.0000
   1549 C          87.5095  210.0645   76.5640 C.3     221      M_A    0.0000
   1550 O          88.0930  208.8853   77.1161 O.3     221      M_A    0.0000
   1551 H          87.4289  211.4794   78.1778 H       221      M_A    0.0000
   1552 H          86.3758  210.0756   78.4041 H       221      M_A    0.0000
   1553 H          88.2978  210.7355   76.1948 H       221      M_A    0.0000
   1554 H          86.8499  209.8011   75.7264 H       221      M_A    0.0000
   1555 C          88.8973  208.2306   76.1584 C.3     222      M_A    0.0000
   1556 C          89.4095  206.8806   76.6449 C.3     222      M_A    0.0000
   1557 O          90.6364  206.5892   75.9773 O.3     222      M_A    0.0000
   1558 H          88.2989  208.0811   75.2525 H       222      M_A    0.0000
   1559 H          89.7393  208.8816   75.8973 H       222      M_A    0.0000
   1560 H          88.6563  206.1205   76.3941 H       222      M_A    0.0000
   1561 H          89.5633  206.8792   77.7323 H       222      M_A    0.0000
   1562 C          91.1850  205.3765   76.4476 C.3     223      M_A    0.0000
   1563 C          92.5699  205.0974   75.8770 C.3     223      M_A    0.0000
   1564 O          92.7532  203.6850   75.7910 O.3     223      M_A    0.0000
   1565 H          91.2523  205.4313   77.5400 H       223      M_A    0.0000
   1566 H          90.5017  204.5571   76.1970 H       223      M_A    0.0000
   1567 H          93.3132  205.5312   76.5606 H       223      M_A    0.0000
   1568 H          92.6938  205.5540   74.8859 H       223      M_A    0.0000
   1569 C          94.1068  203.3435   76.0001 C.3     224      M_A    0.0000
   1570 C          94.6631  202.4458   74.9019 C.3     224      M_A    0.0000
   1571 O          95.5996  201.5393   75.4824 O.3     224      M_A    0.0000
   1572 H          94.6924  204.2690   76.0368 H       224      M_A    0.0000
   1573 H          94.2020  202.8506   76.9743 H       224      M_A    0.0000
   1574 H          95.1676  203.0846   74.1634 H       224      M_A    0.0000
   1575 H          93.8628  201.8881   74.3972 H       224      M_A    0.0000
   1576 C          95.7855  200.4133   74.6516 C.3     225      M_A    0.0000
   1577 C          96.9459  199.5350   75.1027 C.3     225      M_A    0.0000
   1578 O          97.6328  199.0555   73.9477 O.3     225      M_A    0.0000
   1579 H          94.8631  199.8219   74.6639 H       225      M_A    0.0000
   1580 H          95.9484  200.7543   73.6228 H       225      M_A    0.0000
   1581 H          96.5321  198.6901   75.6708 H       225      M_A    0.0000
   1582 H          97.6391  200.0891   75.7497 H       225      M_A    0.0000
   1583 C          98.1070  197.7426   74.1579 C.3     226      M_A    0.0000
   1584 C          99.6004  197.6977   74.4561 C.3     226      M_A    0.0000
   1585 O         100.1319  196.4748   73.9481 O.3     226      M_A    0.0000
   1586 H          97.5599  197.3117   75.0041 H       226      M_A    0.0000
   1587 H          97.8808  197.1375   73.2726 H       226      M_A    0.0000
   1588 H          99.7310  197.7390   75.5466 H       226      M_A    0.0000
   1589 H         100.1243  198.5514   74.0058 H       226      M_A    0.0000
   1590 C         100.2522  196.5284   72.5426 C.3     227      M_A    0.0000
   1591 C         100.9498  195.3031   71.9652 C.3     227      M_A    0.0000
   1592 O         102.3593  195.5224   71.9953 O.3     227      M_A    0.0000
   1593 H          99.2460  196.6022   72.1148 H       227      M_A    0.0000
   1594 H         100.7983  197.4378   72.2675 H       227      M_A    0.0000
   1595 H         100.6119  195.1771   70.9269 H       227      M_A    0.0000
   1596 H         100.6980  194.3958   72.5304 H       227      M_A    0.0000
   1597 C         102.8581  195.3847   73.3087 C.3     228      M_A    0.0000
   1598 C         103.9596  194.3371   73.4124 C.3     228      M_A    0.0000
   1599 O         103.4302  193.1787   74.0555 O.3     228      M_A    0.0000
   1600 H         103.2555  196.3547   73.6282 H       228      M_A    0.0000
   1601 H         102.0292  195.1279   73.9781 H       228      M_A    0.0000
   1602 H         104.7759  194.7603   74.0145 H       228      M_A    0.0000
   1603 H         104.3532  194.0709   72.4223 H       228      M_A    0.0000
   1604 C         104.2355  192.0495   73.7925 C.3     229      M_A    0.0000
   1605 C         104.1373  191.5815   72.3459 C.3     229      M_A    0.0000
   1606 O         105.0242  190.4793   72.1604 O.3     229      M_A    0.0000
   1607 H         105.2763  192.3114   74.0141 H       229      M_A    0.0000
   1608 H         103.9444  191.2400   74.4714 H       229      M_A    0.0000
   1609 H         104.4361  192.4167   71.6971 H       229      M_A    0.0000
   1610 H         103.1110  191.2858   72.0898 H       229      M_A    0.0000
   1611 C         106.0799  190.5249   73.0963 C.3     230      M_A    0.0000
   1612 C         107.4181  190.1157   72.4935 C.3     230      M_A    0.0000
   1613 O         107.8086  188.8631   73.0542 O.3     230      M_A    0.0000
   1614 H         106.1571  191.5497   73.4768 H       230      M_A    0.0000
   1615 H         105.8326  189.8736   73.9424 H       230      M_A    0.0000
   1616 H         108.1569  190.8880   72.7498 H       230      M_A    0.0000
   1617 H         107.3566  190.0357   71.4000 H       230      M_A    0.0000
   1618 C         109.0739  188.4706   72.5667 C.3     231      M_A    0.0000
   1619 C         109.0450  187.1073   71.8870 C.3     231      M_A    0.0000
   1620 O         110.3536  186.5412   71.9410 O.3     231      M_A    0.0000
   1621 H         109.4121  189.2231   71.8453 H       231      M_A    0.0000
   1622 H         109.7877  188.4623   73.3982 H       231      M_A    0.0000
   1623 H         108.7432  187.2552   70.8405 H       231      M_A    0.0000
   1624 H         108.3238  186.4345   72.3701 H       231      M_A    0.0000
   1625 C         110.7448  186.3145   73.2782 C.3     232      M_A    0.0000
   1626 C         112.1530  185.7437   73.3901 C.3     232      M_A    0.0000
   1627 O         112.0799  184.3223   73.2903 O.3     232      M_A    0.0000
   1628 H         110.7018  187.2690   73.8148 H       232      M_A    0.0000
   1629 H         110.0243  185.6357   73.7486 H       232      M_A    0.0000
   1630 H         112.5594  186.0305   74.3702 H       232      M_A    0.0000
   1631 H         112.8100  186.1427   72.6056 H       232      M_A    0.0000
   1632 C         113.0897  183.8291   72.4360 C.3     233      M_A    0.0000
   1633 C         112.6547  182.5878   71.6670 C.3     233      M_A    0.0000
   1634 O         113.8120  181.9643   71.1122 O.3     233      M_A    0.0000
   1635 H         113.3515  184.6187   71.7227 H       233      M_A    0.0000
   1636 H         113.9829  183.6097   73.0320 H       233      M_A    0.0000
   1637 H         111.9779  182.9063   70.8618 H       233      M_A    0.0000
   1638 H         112.1215  181.8809   72.3167 H       233      M_A    0.0000
   1639 C         114.5406  181.2844   72.1120 C.3     234      M_A    0.0000
   1640 C         116.0294  181.1992   71.7992 C.3     234      M_A    0.0000
   1641 O         116.3307  179.8738   71.3654 O.3     234      M_A    0.0000
   1642 H         114.4039  181.8183   73.0592 H       234      M_A    0.0000
   1643 H         114.1228  180.2786   72.2337 H       234      M_A    0.0000
   1644 H         116.5841  181.4277   72.7201 H       234      M_A    0.0000
   1645 H         116.3177  181.9231   71.0253 H       234      M_A    0.0000
   1646 C         116.2530  178.9657   72.4434 C.3     235      M_A    0.0000
   1647 C         117.5539  178.2045   72.6658 C.3     235      M_A    0.0000
   1648 O         117.5763  177.0730   71.7969 O.3     235      M_A    0.0000
   1649 H         116.0089  179.5302   73.3504 H       235      M_A    0.0000
   1650 H         115.4323  178.2636   72.2575 H       235      M_A    0.0000
   1651 H         117.5794  177.8734   73.7135 H       235      M_A    0.0000
   1652 H         118.4279  178.8419   72.4762 H       235      M_A    0.0000
   1653 C         118.3323  177.3490   70.6371 C.3     236      M_A    0.0000
   1654 C         119.2923  176.2213   70.2790 C.3     236      M_A    0.0000
   1655 O         120.4929  176.7904   69.7590 O.3     236      M_A    0.0000
   1656 H         117.6376  177.5058   69.8041 H       236      M_A    0.0000
   1657 H         118.8865  178.2823   70.7883 H       236      M_A    0.0000
   1658 H         118.8117  175.5956   69.5138 H       236      M_A    0.0000
   1659 H         119.5198  175.5968   71.1532 H       236      M_A    0.0000
   1660 C         121.5015  175.8095   69.6440 C.3     237      M_A    0.0000
   1661 C         121.9378  175.5811   68.2022 C.3     237      M_A    0.0000
   1662 O         122.8984  174.5263   68.1764 O.3     237      M_A    0.0000
   1663 H         122.3665  176.1363   70.2322 H       237      M_A    0.0000
   1664 H         121.1370  174.8727   70.0806 H       237      M_A    0.0000
   1665 H         122.3921  176.5112   67.8328 H       237      M_A    0.0000
   1666 H         121.0831  175.3274   67.5609 H       237      M_A    0.0000
   1667 C         122.7987  173.7316   69.3388 C.3     238      M_A    0.0000
   1668 C         123.8058  174.1290   70.4108 C.3     238      M_A    0.0000
   1669 O         125.0984  173.6713   70.0163 O.3     238      M_A    0.0000
   1670 H         121.7854  173.8394   69.7421 H       238      M_A    0.0000
   1671 H         122.9368  172.6801   69.0628 H       238      M_A    0.0000
   1672 H         123.5084  173.6466   71.3525 H       238      M_A    0.0000
   1673 H         123.8217  175.2167   70.5615 H       238      M_A    0.0000
   1674 C         125.8018  173.1475   71.1225 C.3     239      M_A    0.0000
   1675 C         127.3132  173.2070   70.9398 C.3     239      M_A    0.0000
   1676 O         127.8750  171.9671   71.3675 O.3     239      M_A    0.0000
   1677 H         125.5254  173.7273   72.0104 H       239      M_A    0.0000
   1678 H         125.4824  172.1124   71.2883 H       239      M_A    0.0000
   1679 H         127.6989  174.0276   71.5609 H       239      M_A    0.0000
   1680 H         127.5825  173.4008   69.8929 H       239      M_A    0.0000
   1681 C         128.3549  171.2292   70.2640 C.3     240      M_A    0.0000
   1682 C         127.8945  169.7769   70.2829 C.3     240      M_A    0.0000
   1683 O         126.8182  169.6501   71.2110 O.3     240      M_A    0.0000
   1684 H         127.9920  171.7078   69.3473 H       240      M_A    0.0000
   1685 H         129.4497  171.2777   70.2536 H       240      M_A    0.0000
   1686 H         128.7422  169.1556   70.6044 H       240      M_A    0.0000
   1687 H         127.5729  169.4460   69.2863 H       240      M_A    0.0000
   1688 C         125.6170  169.3307   70.5420 C.3     241      M_A    0.0000
   1689 C         125.8252  168.3464   69.3978 C.3     241      M_A    0.0000
   1690 O         125.8679  167.0246   69.9333 O.3     241      M_A    0.0000
   1691 H         124.9251  168.8922   71.2699 H       241      M_A    0.0000
   1692 H         125.1632  170.2549   70.1665 H       241      M_A    0.0000
   1693 H         126.7821  168.5858   68.9130 H       241      M_A    0.0000
   1694 H         125.0229  168.4244   68.6518 H       241      M_A    0.0000
   1695 C         126.0165  166.0724   68.9019 C.3     242      M_A    0.0000
   1696 C         124.7332  165.8600   68.1085 C.3     242      M_A    0.0000
   1697 O         123.7404  165.3206   68.9799 O.3     242      M_A    0.0000
   1698 H         126.8031  166.4215   68.2234 H       242      M_A    0.0000
   1699 H         126.3507  165.1246   69.3391 H       242      M_A    0.0000
   1700 H         124.9478  165.1487   67.2985 H       242      M_A    0.0000
   1701 H         124.3757  166.7998   67.6668 H       242      M_A    0.0000
   1702 C         123.7935  163.9100   68.9850 C.3     243      M_A    0.0000
   1703 C         124.0765  163.3374   70.3682 C.3     243      M_A    0.0000
   1704 O         124.3148  161.9362   70.2434 O.3     243      M_A    0.0000
   1705 H         122.8292  163.5292   68.6303 H       243      M_A    0.0000
   1706 H         124.5621  163.5812   68.2763 H       243      M_A    0.0000
   1707 H         123.1920  163.5130   70.9965 H       243      M_A    0.0000
   1708 H         124.9425  163.8263   70.8342 H       243      M_A    0.0000
   1709 C         125.5219  161.6944   69.5526 C.3     244      M_A    0.0000
   1710 C         126.7524  162.0576   70.3744 C.3     244      M_A    0.0000
   1711 O         126.8480  163.4791   70.4514 O.3     244      M_A    0.0000
   1712 H         125.5635  160.6296   69.2971 H       244      M_A    0.0000
   1713 H         125.5138  162.2616   68.6149 H       244      M_A    0.0000
   1714 H         127.6355  161.6494   69.8630 H       244      M_A    0.0000
   1715 H         126.7001  161.6287   71.3841 H       244      M_A    0.0000
   1716 C         127.9979  163.9396   69.7744 C.3     245      M_A    0.0000
   1717 C         127.6850  165.0341   68.7617 C.3     245      M_A    0.0000
   1718 O         127.0591  164.4405   67.6251 O.3     245      M_A    0.0000
   1719 H         128.7005  164.3310   70.5187 H       245      M_A    0.0000
   1720 H         128.4799  163.0910   69.2757 H       245      M_A    0.0000
   1721 H         128.6331  165.5042   68.4649 H       245      M_A    0.0000
   1722 H         127.0302  165.8031   69.1930 H       245      M_A    0.0000
   1723 C         126.8183  165.4078   66.6256 C.3     246      M_A    0.0000
   1724 C         128.0250  165.6336   65.7232 C.3     246      M_A    0.0000
   1725 O         127.7674  166.7619   64.8886 O.3     246      M_A    0.0000
   1726 H         125.9738  165.0678   66.0156 H       246      M_A    0.0000
   1727 H         126.5249  166.3484   67.1053 H       246      M_A    0.0000
   1728 H         128.1616  164.7342   65.1065 H       246      M_A    0.0000
   1729 H         128.9380  165.8006   66.3102 H       246      M_A    0.0000
   1730 C         127.7649  167.9531   65.6460 C.3     247      M_A    0.0000
   1731 C         127.3996  169.1770   64.8154 C.3     247      M_A    0.0000
   1732 O         127.2886  168.7855   63.4479 O.3     247      M_A    0.0000
   1733 H         127.0378  167.8416   66.4583 H       247      M_A    0.0000
   1734 H         128.7533  168.0870   66.1002 H       247      M_A    0.0000
   1735 H         128.2034  169.9178   64.9294 H       247      M_A    0.0000
   1736 H         126.4565  169.6250   65.1563 H       247      M_A    0.0000
   1737 C         125.9907  168.3055   63.1696 C.3     248      M_A    0.0000
   1738 C         125.2481  167.8582   64.4226 C.3     248      M_A    0.0000
   1739 O         124.7830  169.0151   65.1162 O.3     248      M_A    0.0000
   1740 H         125.4242  169.1090   62.6854 H       248      M_A    0.0000
   1741 H         126.0643  167.4750   62.4583 H       248      M_A    0.0000
   1742 H         125.9529  167.3000   65.0546 H       248      M_A    0.0000
   1743 H         124.4024  167.2031   64.1741 H       248      M_A    0.0000
   1744 C         125.5895  170.1344   64.8174 C.3     249      M_A    0.0000
   1745 C         126.8579  169.7599   64.0610 C.3     249      M_A    0.0000
   1746 O         127.3560  168.5293   64.5838 O.3     249      M_A    0.0000
   1747 H         125.0005  170.8285   64.2072 H       249      M_A    0.0000
   1748 H         125.8451  170.6473   65.7516 H       249      M_A    0.0000
   1749 H         127.5956  170.5596   64.2169 H       249      M_A    0.0000
   1750 H         126.6672  169.6614   62.9839 H       249      M_A    0.0000
   1751 C         126.4028  167.4995   64.4307 C.3     250      M_A    0.0000
   1752 C         124.9784  168.0286   64.3192 C.3     250      M_A    0.0000
   1753 O         124.3208  167.3507   63.2496 O.3     250      M_A    0.0000
   1754 H         126.6480  166.9374   63.5224 H       250      M_A    0.0000
   1755 H         126.4841  166.8115   65.2798 H       250      M_A    0.0000
   1756 H         125.0313  169.1053   64.1046 H       250      M_A    0.0000
   1757 H         124.4229  167.8826   65.2552 H       250      M_A    0.0000
   1758 C         124.7883  166.0235   63.1373 C.3     251      M_A    0.0000
   1759 C         126.2920  165.9475   62.9037 C.3     251      M_A    0.0000
   1760 O         126.5768  166.4364   61.5939 O.3     251      M_A    0.0000
   1761 H         124.5429  165.4938   64.0648 H       251      M_A    0.0000
   1762 H         124.2541  165.5270   62.3193 H       251      M_A    0.0000
   1763 H         126.5962  164.8945   62.9854 H       251      M_A    0.0000
   1764 H         126.8432  166.5328   63.6519 H       251      M_A    0.0000
   1765 C         127.3721  165.5150   60.8790 C.3     252      M_A    0.0000
   1766 C         128.0324  164.4823   61.7838 C.3     252      M_A    0.0000
   1767 O         129.4126  164.8147   61.9264 O.3     252      M_A    0.0000
   1768 H         126.7318  164.9990   60.1545 H       252      M_A    0.0000
   1769 H         128.1344  166.0658   60.3163 H       252      M_A    0.0000
   1770 H         127.9312  163.4975   61.3064 H       252      M_A    0.0000
   1771 H         127.5500  164.4473   62.7698 H       252      M_A    0.0000
   1772 C         130.1415  163.7159   62.4306 C.3     253      M_A    0.0000
   1773 C         131.4989  164.1191   62.9928 C.3     253      M_A    0.0000
   1774 O         132.4758  164.0000   61.9597 O.3     253      M_A    0.0000
   1775 H         129.5497  163.2474   63.2251 H       253      M_A    0.0000
   1776 H         130.2687  162.9774   61.6309 H       253      M_A    0.0000
   1777 H         131.7415  163.4358   63.8189 H       253      M_A    0.0000
   1778 H         131.4829  165.1471   63.3788 H       253      M_A    0.0000
   1779 C         132.8203  165.2703   61.4493 C.3     254      M_A    0.0000
   1780 C         133.5681  165.1884   60.1244 C.3     254      M_A    0.0000
   1781 O         134.3576  164.0000   60.1172 O.3     254      M_A    0.0000
   1782 H         131.8976  165.8436   61.3048 H       254      M_A    0.0000
   1783 H         133.4274  165.7988   62.1930 H       254      M_A    0.0000
   1784 H         134.2182  166.0711   60.0456 H       254      M_A    0.0000
   1785 H         132.8744  165.1845   59.2729 H       254      M_A    0.0000
   1786 C         134.1169  163.2336   61.2779 C.3     255      M_A    0.0000
   1787 C         134.8508  161.8984   61.2635 C.3     255      M_A    0.0000
   1788 O         134.2304  161.0457   60.3024 O.3     255      M_A    0.0000
   1789 H         134.4469  163.8141   62.1468 H       255      M_A    0.0000
   1790 H         133.0379  163.0697   61.3776 H       255      M_A    0.0000
   1791 H         134.7700  161.4550   62.2659 H       255      M_A    0.0000
   1792 H         135.9138  162.0287   61.0203 H       255      M_A    0.0000
   1793 C         133.0014  160.5529   60.7915 C.3     256      M_A    0.0000
   1794 C         132.0176  161.6642   61.1357 C.3     256      M_A    0.0000
   1795 O         132.6163  162.9198   60.8182 O.3     256      M_A    0.0000
   1796 H         132.5596  159.9091   60.0226 H       256      M_A    0.0000
   1797 H         133.1938  159.9328   61.6744 H       256      M_A    0.0000
   1798 H         131.8072  161.6107   62.2131 H       256      M_A    0.0000
   1799 H         131.0739  161.5476   60.5860 H       256      M_A    0.0000
   1800 C         133.2037  163.4970   61.9647 C.3     257      M_A    0.0000
   1801 C         132.3325  163.3547   63.2066 C.3     257      M_A    0.0000
   1802 O         132.4709  164.5325   64.0000 O.3     257      M_A    0.0000
   1803 H         134.1652  163.0025   62.1434 H       257      M_A    0.0000
   1804 H         133.4060  164.5555   61.7653 H       257      M_A    0.0000
   1805 H         132.6842  162.4792   63.7703 H       257      M_A    0.0000
   1806 H         131.2780  163.2022   62.9403 H       257      M_A    0.0000
   1807 C         133.6521  164.4792   64.7711 C.3     258      M_A    0.0000
   1808 C         133.4033  163.9982   66.1952 C.3     258      M_A    0.0000
   1809 O         133.3716  162.5717   66.1974 O.3     258      M_A    0.0000
   1810 H         134.3523  163.7946   64.2792 H       258      M_A    0.0000
   1811 H         134.1127  165.4736   64.7840 H       258      M_A    0.0000
   1812 H         132.4326  164.3954   66.5237 H       258      M_A    0.0000
   1813 H         134.1819  164.3583   66.8810 H       258      M_A    0.0000
   1814 C         134.6586  162.0440   66.4376 C.3     259      M_A    0.0000
   1815 C         134.6826  160.5207   66.4177 C.3     259      M_A    0.0000
   1816 O         134.5196  160.0431   67.7523 O.3     259      M_A    0.0000
   1817 H         135.3347  162.4228   65.6628 H       259      M_A    0.0000
   1818 H         135.0193  162.4142   67.4039 H       259      M_A    0.0000
   1819 H         135.6565  160.2010   66.0212 H       259      M_A    0.0000
   1820 H         133.8900  160.1164   65.7739 H       259      M_A    0.0000
   1821 C         135.7587  160.0162   68.4279 C.3     260      M_A    0.0000
   1822 C         136.5826  158.7784   68.0958 C.3     260      M_A    0.0000
   1823 O         135.9043  157.6285   68.5993 O.3     260      M_A    0.0000
   1824 H         136.3246  160.9101   68.1422 H       260      M_A    0.0000
   1825 H         135.5758  160.0690   69.5072 H       260      M_A    0.0000
   1826 H         137.5617  158.8802   68.5847 H       260      M_A    0.0000
   1827 H         136.7378  158.6796   67.0131 H       260      M_A    0.0000
   1828 C         136.3987  156.4525   67.9950 C.3     261      M_A    0.0000
   1829 C         137.8791  156.5477   67.6477 C.3     261      M_A    0.0000
   1830 O         138.0215  157.3278   66.4615 O.3     261      M_A    0.0000
   1831 H         136.2471  155.6195   68.6908 H       261      M_A    0.0000
   1832 H         135.8124  156.2435   67.0930 H       261      M_A    0.0000
   1833 H         138.2540  155.5292   67.4741 H       261      M_A    0.0000
   1834 H         138.4540  157.0001   68.4668 H       261      M_A    0.0000
   1835 C         139.3595  157.3130   66.0117 C.3     262      M_A    0.0000
   1836 C         140.3487  157.7225   67.0958 C.3     262      M_A    0.0000
   1837 O         141.4750  158.3425   66.4770 O.3     262      M_A    0.0000
   1838 H         139.5972  156.2974   65.6755 H       262      M_A    0.0000
   1839 H         139.4506  157.9797   65.1468 H       262      M_A    0.0000
   1840 H         140.6657  156.8144   67.6277 H       262      M_A    0.0000
   1841 H         139.8893  158.4113   67.8172 H       262      M_A    0.0000
   1842 C         141.1839  158.6849   65.1388 C.3     263      M_A    0.0000
   1843 C         141.2614  157.4904   64.1961 C.3     263      M_A    0.0000
   1844 O         142.3469  157.6906   63.2920 O.3     263      M_A    0.0000
   1845 H         140.1716  159.1032   65.1042 H       263      M_A    0.0000
   1846 H         141.8787  159.4676   64.8136 H       263      M_A    0.0000
   1847 H         140.3152  157.4343   63.6397 H       263      M_A    0.0000
   1848 H         141.4009  156.5522   64.7497 H       263      M_A    0.0000
   1849 C         142.1979  156.8804   62.1457 C.3     264      M_A    0.0000
   1850 C         141.3587  155.6365   62.4099 C.3     264      M_A    0.0000
   1851 O         141.8743  154.5617   61.6259 O.3     264      M_A    0.0000
   1852 H         141.7159  157.4780   61.3637 H       264      M_A    0.0000
   1853 H         143.1913  156.5948   61.7814 H       264      M_A    0.0000
   1854 H         140.3235  155.8550   62.1122 H       264      M_A    0.0000
   1855 H         141.3696  155.3651   63.4740 H       264      M_A    0.0000
   1856 C         141.8937  153.3637   62.3722 C.3     265      M_A    0.0000
   1857 C         143.3060  152.8505   62.6240 C.3     265      M_A    0.0000
   1858 O         143.3179  151.4354   62.4420 O.3     265      M_A    0.0000
   1859 H         141.4041  153.5511   63.3346 H       265      M_A    0.0000
   1860 H         141.3060  152.6057   61.8420 H       265      M_A    0.0000
   1861 H         143.5782  153.0978   63.6597 H       265      M_A    0.0000
   1862 H         144.0301  153.3231   61.9468 H       265      M_A    0.0000
   1863 C         144.3490  150.8428   63.2025 C.3     266      M_A    0.0000
   1864 C         145.3462  150.0751   62.3436 C.3     266      M_A    0.0000
   1865 O         144.6393  149.0896   61.5920 O.3     266      M_A    0.0000
   1866 H         144.8777  151.6371   63.7414 H       266      M_A    0.0000
   1867 H         143.9016  150.1757   63.9481 H       266      M_A    0.0000
   1868 H         146.0688  149.5887   63.0138 H       266      M_A    0.0000
   1869 H         145.8905  150.7463   61.6658 H       266      M_A    0.0000
   1870 C         144.9919  147.7902   62.0161 C.3     267      M_A    0.0000
   1871 C         146.2106  147.2431   61.2833 C.3     267      M_A    0.0000
   1872 O         145.8126  146.8342   59.9755 O.3     267      M_A    0.0000
   1873 H         145.2065  147.8264   63.0902 H       267      M_A    0.0000
   1874 H         144.1339  147.1242   61.8705 H       267      M_A    0.0000
   1875 H         146.5874  146.3788   61.8481 H       267      M_A    0.0000
   1876 H         147.0081  147.9952   61.2160 H       267      M_A    0.0000
   1877 C         146.0797  145.4622   59.7784 C.3     268      M_A    0.0000
   1878 C         147.5457  145.1109   59.9998 C.3     268      M_A    0.0000
   1879 O         148.1568  144.8774   58.7318 O.3     268      M_A    0.0000
   1880 H         145.4642  144.8885   60.4806 H       268      M_A    0.0000
   1881 H         145.7743  145.1833   58.7635 H       268      M_A    0.0000
   1882 H         147.5883  144.1981   60.6105 H       268      M_A    0.0000
   1883 H         148.0741  145.9146   60.5299 H       268      M_A    0.0000
   1884 C         149.1597  143.8894   58.8352 C.3     269      M_A    0.0000
   1885 C         149.5499  143.5965   60.2786 C.3     269      M_A    0.0000
   1886 O         150.5058  144.5683   60.7002 O.3     269      M_A    0.0000
   1887 H         148.7842  142.9697   58.3723 H       269      M_A    0.0000
   1888 H         150.0379  144.2140   58.2656 H       269      M_A    0.0000
   1889 H         149.9954  142.5924   60.3135 H       269      M_A    0.0000
   1890 H         148.6748  143.6172   60.9418 H       269      M_A    0.0000
   1891 C         151.0190  144.2437   61.9746 C.3     270      M_A    0.0000
   1892 C         151.0506  145.4398   62.9178 C.3     270      M_A    0.0000
   1893 O         151.9454  146.4168   62.3880 O.3     270      M_A    0.0000
   1894 H         150.3871  143.4613   62.4098 H       270      M_A    0.0000
   1895 H         152.0269  143.8299   61.8565 H       270      M_A    0.0000
   1896 H         151.4112  145.0922   63.8961 H       270      M_A    0.0000
   1897 H         150.0505  145.8754   63.0452 H       270      M_A    0.0000
   1898 C         153.1875  146.3713   63.0571 C.3     271      M_A    0.0000
   1899 C         153.5757  144.9602   63.4808 C.3     271      M_A    0.0000
   1900 O         154.8408  144.6408   62.9035 O.3     271      M_A    0.0000
   1901 H         153.9553  146.7663   62.3822 H       271      M_A    0.0000
   1902 H         153.1435  147.0292   63.9324 H       271      M_A    0.0000
   1903 H         152.8073  144.2692   63.1064 H       271      M_A    0.0000
   1904 H         153.6277  144.8708   64.5741 H       271      M_A    0.0000
   1905 C         155.2862  143.3762   63.3450 C.3     272      M_A    0.0000
   1906 C         155.8936  142.5423   62.2238 C.3     272      M_A    0.0000
   1907 O         156.7450  141.5525   62.7993 O.3     272      M_A    0.0000
   1908 H         156.0406  143.5312   64.1247 H       272      M_A    0.0000
   1909 H         154.4438  142.8417   63.7986 H       272      M_A    0.0000
   1910 H         156.4800  143.2132   61.5803 H       272      M_A    0.0000
   1911 H         155.1154  142.0619   61.6158 H       272      M_A    0.0000
   1912 C         157.5829  140.9822   61.8168 C.3     273      M_A    0.0000
   1913 C         157.3990  139.4751   61.6902 C.3     273      M_A    0.0000
   1914 O         158.2274  138.8302   62.6564 O.3     273      M_A    0.0000
   1915 H         157.3528  141.4530   60.8544 H       273      M_A    0.0000
   1916 H         158.6256  141.2157   62.0606 H       273      M_A    0.0000
   1917 H         157.7045  139.1791   60.6767 H       273      M_A    0.0000
   1918 H         156.3502  139.1859   61.8407 H       273      M_A    0.0000
   1919 C         159.4849  138.5090   62.1012 C.3     274      M_A    0.0000
   1920 C         159.4717  137.1893   61.3398 C.3     274      M_A    0.0000
   1921 O         160.4795  136.3377   61.8828 O.3     274      M_A    0.0000
   1922 H         159.7734  139.3145   61.4164 H       274      M_A    0.0000
   1923 H         160.2291  138.4732   62.9050 H       274      M_A    0.0000
   1924 H         159.6903  137.4034   60.2842 H       274      M_A    0.0000
   1925 H         158.4907  136.6999   61.4044 H       274      M_A    0.0000
   1926 C         161.4321  136.0000   60.8973 C.3     275      M_A    0.0000
   1927 C         161.4849  134.5029   60.6193 C.3     275      M_A    0.0000
   1928 O         162.7254  133.9910   61.1040 O.3     275      M_A    0.0000
   1929 H         161.1705  136.5268   59.9726 H       275      M_A    0.0000
   1930 H         162.4168  136.3590   61.2176 H       275      M_A    0.0000
   1931 H         161.4178  134.3562   59.5321 H       275      M_A    0.0000
   1932 H         160.6481  133.9772   61.0982 H       275      M_A    0.0000
   1933 C         163.5075  133.4883   60.0417 C.3     276      M_A    0.0000
   1934 C         164.0091  132.0730   60.2996 C.3     276      M_A    0.0000
   1935 O         165.3895  132.0051   59.9450 O.3     276      M_A    0.0000
   1936 H         162.8944  133.4909   59.1334 H       276      M_A    0.0000
   1937 H         164.3540  134.1637   59.8738 H       276      M_A    0.0000
   1938 H         163.4261  131.3856   59.6707 H       276      M_A    0.0000
   1939 H         163.8764  131.7868   61.3515 H       276      M_A    0.0000
   1940 C         165.8131  130.6625   59.8416 C.3     277      M_A    0.0000
   1941 C         167.2648  130.4700   60.2623 C.3     277      M_A    0.0000
   1942 O         167.7436  129.2460   59.7069 O.3     277      M_A    0.0000
   1943 H         165.1702  130.0496   60.4835 H       277      M_A    0.0000
   1944 H         165.6717  130.3242   58.8089 H       277      M_A    0.0000
   1945 H         167.2974  130.4220   61.3598 H       277      M_A    0.0000
   1946 H         167.8928  131.3063   59.9271 H       277      M_A    0.0000
   1947 C         167.9964  129.3895   58.3256 C.3     278      M_A    0.0000
   1948 C         168.4506  128.0898   57.6729 C.3     278      M_A    0.0000
   1949 O         169.8713  128.0011   57.7702 O.3     278      M_A    0.0000
   1950 H         167.0740  129.7299   57.8416 H       278      M_A    0.0000
   1951 H         168.7542  130.1682   58.1824 H       278      M_A    0.0000
   1952 H         168.1479  128.1157   56.6166 H       278      M_A    0.0000
   1953 H         167.9854  127.2177   58.1516 H       278      M_A    0.0000
   1954 C         170.2892  126.6527   57.7612 C.3     279      M_A    0.0000
   1955 C         169.9230  125.9153   59.0432 C.3     279      M_A    0.0000
   1956 O         170.9631  124.9880   59.3506 O.3     279      M_A    0.0000
   1957 H         169.8124  126.1515   56.9113 H       279      M_A    0.0000
   1958 H         171.3730  126.6181   57.6026 H       279      M_A    0.0000
   1959 H         168.9805  125.3775   58.8689 H       279      M_A    0.0000
   1960 H         169.7815  126.6127   59.8796 H       279      M_A    0.0000
   1961 C         171.7431  124.7151   58.2061 C.3     280      M_A    0.0000
   1962 C         172.5152  123.4065   58.3194 C.3     280      M_A    0.0000
   1963 O         172.9209  123.0001   57.0131 O.3     280      M_A    0.0000
   1964 H         171.0742  124.6622   57.3397 H       280      M_A    0.0000
   1965 H         172.4356  125.5484   58.0416 H       280      M_A    0.0000
   1966 H         171.8447  122.6526   58.7553 H       280      M_A    0.0000
   1967 H         173.3936  123.5151   58.9694 H       280      M_A    0.0000
   1968 C         173.3191  121.6458   57.0127 C.3     281      M_A    0.0000
   1969 C         174.7067  121.4412   56.4177 C.3     281      M_A    0.0000
   1970 O         174.7204  121.9747   55.0944 O.3     281      M_A    0.0000
   1971 H         173.3172  121.2874   58.0483 H       281      M_A    0.0000
   1972 H         172.5798  121.0587   56.4560 H       281      M_A    0.0000
   1973 H         174.9086  120.3613   56.3888 H       281      M_A    0.0000
   1974 H         175.4794  121.9281   57.0277 H       281      M_A    0.0000
   1975 C         173.4113  122.2861   54.6680 C.3     282      M_A    0.0000
   1976 C         172.3518  121.4273   55.3472 C.3     282      M_A    0.0000
   1977 O         172.0613  120.3104   54.5081 O.3     282      M_A    0.0000
   1978 H         173.2178  123.3403   54.8963 H       282      M_A    0.0000
   1979 H         173.3542  122.1653   53.5802 H       282      M_A    0.0000
   1980 H         171.4500  122.0413   55.4800 H       282      M_A    0.0000
   1981 H         172.6898  121.0797   56.3326 H       282      M_A    0.0000
   1982 C         170.8652  119.6794   54.9130 C.3     283      M_A    0.0000
   1983 C         170.8094  119.4344   56.4158 C.3     283      M_A    0.0000
   1984 O         171.4275  118.1798   56.6981 O.3     283      M_A    0.0000
   1985 H         170.0245  120.3198   54.6232 H       283      M_A    0.0000
   1986 H         170.7634  118.7315   54.3724 H       283      M_A    0.0000
   1987 H         169.7527  119.4082   56.7171 H       283      M_A    0.0000
   1988 H         171.3145  120.2361   56.9710 H       283      M_A    0.0000
   1989 C         172.1423  117.7112   55.5747 C.3     284      M_A    0.0000
   1990 C         173.2357  116.7173   55.9463 C.3     284      M_A    0.0000
   1991 O         174.4554  117.1272   55.3297 O.3     284      M_A    0.0000
   1992 H         171.4331  117.2256   54.8950 H       284      M_A    0.0000
   1993 H         172.5755  118.5684   55.0468 H       284      M_A    0.0000
   1994 H         172.9388  115.7284   55.5696 H       284      M_A    0.0000
   1995 H         173.3668  116.6551   57.0349 H       284      M_A    0.0000
   1996 C         175.0103  118.2341   56.0076 C.3     285      M_A    0.0000
   1997 C         176.3444  117.9104   56.6684 C.3     285      M_A    0.0000
   1998 O         176.1481  116.8459   57.5980 O.3     285      M_A    0.0000
   1999 H         175.1569  119.0423   55.2821 H       285      M_A    0.0000
   2000 H         174.2934  118.5866   56.7579 H       285      M_A    0.0000
   2001 H         176.6897  118.8104   57.1963 H       285      M_A    0.0000
   2002 H         177.1007  117.6259   55.9247 H       285      M_A    0.0000
   2003 C         175.7088  115.6792   56.9357 C.3     286      M_A    0.0000
   2004 C         176.6732  114.5112   57.1005 C.3     286      M_A    0.0000
   2005 O         176.9827  113.9879   55.8097 O.3     286      M_A    0.0000
   2006 H         174.7327  115.3983   57.3471 H       286      M_A    0.0000
   2007 H         175.5691  115.9059   55.8726 H       286      M_A    0.0000
   2008 H         176.1753  113.7421   57.7075 H       286      M_A    0.0000
   2009 H         177.5944  114.8219   57.6113 H       286      M_A    0.0000
   2010 C         178.3377  114.2194   55.4887 C.3     287      M_A    0.0000
   2011 C         178.9299  113.1231   54.6119 C.3     287      M_A    0.0000
   2012 O         179.4547  113.7188   53.4264 O.3     287      M_A    0.0000
   2013 H         178.4062  115.1768   54.9599 H       287      M_A    0.0000
   2014 H         178.9119  114.3106   56.4177 H       287      M_A    0.0000
   2015 H         178.1241  112.4214   54.3541 H       287      M_A    0.0000
   2016 H         179.7211  112.5731   55.1387 H       287      M_A    0.0000
   2017 C         180.2635  114.8316   53.7426 C.3     288      M_A    0.0000
   2018 C         181.5656  114.8557   52.9519 C.3     288      M_A    0.0000
   2019 O         182.4432  113.8652   53.4853 O.3     288      M_A    0.0000
   2020 H         179.6947  115.7423   53.5235 H       288      M_A    0.0000
   2021 H         180.4754  114.8223   54.8179 H       288      M_A    0.0000
   2022 H         182.0133  115.8531   53.0641 H       288      M_A    0.0000
   2023 H         181.3891  114.6665   51.8846 H       288      M_A    0.0000
   2024 C         183.7804  114.3167   53.4595 C.3     289      M_A    0.0000
   2025 C         184.7536  113.3069   54.0549 C.3     289      M_A    0.0000
   2026 O         185.3045  113.8534   55.2522 O.3     289      M_A    0.0000
   2027 H         184.0574  114.5090   52.4168 H       289      M_A    0.0000
   2028 H         183.8446  115.2671   54.0015 H       289      M_A    0.0000
   2029 H         185.5523  113.1306   53.3208 H       289      M_A    0.0000
   2030 H         184.2565  112.3517   54.2712 H       289      M_A    0.0000
   2031 C         185.5830  112.8316   56.1856 C.3     290      M_A    0.0000
   2032 C         187.0745  112.5541   56.3259 C.3     290      M_A    0.0000
   2033 O         187.2990  111.1569   56.1438 O.3     290      M_A    0.0000
   2034 H         185.1827  113.1376   57.1587 H       290      M_A    0.0000
   2035 H         185.0567  111.9198   55.8811 H       290      M_A    0.0000
   2036 H         187.3828  112.8549   57.3370 H       290      M_A    0.0000
   2037 H         187.6588  113.1276   55.5939 H       290      M_A    0.0000
   2038 C         186.1737  110.4121   56.5581 C.3     291      M_A    0.0000
   2039 C         186.3754  108.9094   56.4076 C.3     291      M_A    0.0000
   2040 O         186.7823  108.6342   55.0680 O.3     291      M_A    0.0000
   2041 H         185.9780  110.6433   57.6112 H       291      M_A    0.0000
   2042 H         185.3013  110.7353   55.9788 H       291      M_A    0.0000
   2043 H         185.4166  108.4148   56.6174 H       291      M_A    0.0000
   2044 H         187.1277  108.5339   57.1141 H       291      M_A    0.0000
   2045 C         188.0738  108.0646   55.0455 C.3     292      M_A    0.0000
   2046 C         188.1294  106.7652   54.2519 C.3     292      M_A    0.0000
   2047 O         189.4007  106.1533   54.4645 O.3     292      M_A    0.0000
   2048 H         188.7605  108.7894   54.5940 H       292      M_A    0.0000
   2049 H         188.4033  107.8913   56.0763 H       292      M_A    0.0000
   2050 H         188.0045  107.0108   53.1879 H       292      M_A    0.0000
   2051 H         187.3265  106.0785   54.5518 H       292      M_A    0.0000
   2052 C         190.3937  107.1307   54.6911 C.3     293      M_A    0.0000
   2053 C         191.7695  106.6953   54.2022 C.3     293      M_A    0.0000
   2054 O         192.4142  105.9627   55.2431 O.3     293      M_A    0.0000
   2055 H         190.1001  108.0462   54.1652 H       293      M_A    0.0000
   2056 H         190.4290  107.3590   55.7624 H       293      M_A    0.0000
   2057 H         192.3483  107.5993   53.9659 H       293      M_A    0.0000
   2058 H         191.6956  106.0775   53.2973 H       293      M_A    0.0000
   2059 C         193.3191  105.0222   54.7051 C.3     294      M_A    0.0000
   2060 C         192.6206  103.7942   54.1344 C.3     294      M_A    0.0000
   2061 O         193.5680  102.7316   54.0397 O.3     294      M_A    0.0000
   2062 H         193.8897  105.5122   53.9081 H       294      M_A    0.0000
   2063 H         194.0274  104.7240   55.4864 H       294      M_A    0.0000
   2064 H         192.2440  104.0512   53.1344 H       294      M_A    0.0000
   2065 H         191.7732  103.4880   54.7622 H       294      M_A    0.0000
   2066 C         194.8607  103.2366   53.7816 C.3     295      M_A    0.0000
   2067 C         195.7349  102.2509   53.0163 C.3     295      M_A    0.0000
   2068 O         196.5621  101.5545   53.9472 O.3     295      M_A    0.0000
   2069 H         194.7588  104.1559   53.1939 H       295      M_A    0.0000
   2070 H         195.3350  103.5011   54.7335 H       295      M_A    0.0000
   2071 H         196.3586  102.8229   52.3150 H       295      M_A    0.0000
   2072 H         195.1269  101.5365   52.4454 H       295      M_A    0.0000
   2073 C         197.5542  102.4109   54.4716 C.3     296      M_A    0.0000
   2074 C         198.9627  101.9996   54.0611 C.3     296      M_A    0.0000
   2075 O         199.4213  100.9847   54.9529 O.3     296      M_A    0.0000
   2076 H         197.3577  103.4261   54.1088 H       296      M_A    0.0000
   2077 H         197.4691  102.4256   55.5641 H       296      M_A    0.0000
   2078 H         199.6105  102.8844   54.1348 H       296      M_A    0.0000
   2079 H         198.9864  101.6305   53.0270 H       296      M_A    0.0000
   2080 C         200.6100  100.3958   54.4705 C.3     297      M_A    0.0000
   2081 C         200.3869   99.5679   53.2111 C.3     297      M_A    0.0000
   2082 O         200.6036   98.1926   53.5232 O.3     297      M_A    0.0000
   2083 H         201.3248  101.1968   54.2504 H       297      M_A    0.0000
   2084 H         201.0428   99.7715   55.2605 H       297      M_A    0.0000
   2085 H         201.1110   99.8992   52.4535 H       297      M_A    0.0000
   2086 H         199.3725   99.7084   52.8143 H       297      M_A    0.0000
   2087 C         200.3744   97.3815   52.3909 C.3     298      M_A    0.0000
   2088 C         200.4803   95.8938   52.7024 C.3     298      M_A    0.0000
   2089 O         201.5643   95.3457   51.9537 O.3     298      M_A    0.0000
   2090 H         199.3688   97.5972   52.0124 H       298      M_A    0.0000
   2091 H         201.0905   97.6547   51.6077 H       298      M_A    0.0000
   2092 H         199.5374   95.4154   52.4022 H       298      M_A    0.0000
   2093 H         200.6380   95.7197   53.7752 H       298      M_A    0.0000
   2094 C         201.4541   93.9408   51.8708 C.3     299      M_A    0.0000
   2095 C         202.6490   93.2202   52.4825 C.3     299      M_A    0.0000
   2096 O         203.3102   92.4794   51.4579 O.3     299      M_A    0.0000
   2097 H         200.5436   93.6365   52.3993 H       299      M_A    0.0000
   2098 H         201.3395   93.6553   50.8190 H       299      M_A    0.0000
   2099 H         202.2740   92.5366   53.2571 H       299      M_A    0.0000
   2100 H         203.3489   93.9283   52.9461 H       299      M_A    0.0000
   2101 C         204.5310   91.9522   51.9314 C.3     300      M_A    0.0000
   2102 C         205.3462   91.2799   50.8337 C.3     300      M_A    0.0000
   2103 O         206.2023   90.3068   51.4304 O.3     300      M_A    0.0000
   2104 H         205.1163   92.7738   52.3597 H       300      M_A    0.0000
   2105 H         204.3211   91.2384   52.7361 H       300      M_A    0.0000
   2106 H         205.9475   92.0528   50.3347 H       300      M_A    0.0000
   2107 H         204.6964   90.8027   50.0880 H       300      M_A    0.0000
   2108 C         206.5699   89.3209   50.4893 C.3     301      M_A    0.0000
   2109 C         207.4958   88.2633   51.0771 C.3     301      M_A    0.0000
   2110 O         208.5675   88.0346   50.1634 O.3     301      M_A    0.0000
   2111 H         205.6567   88.8356   50.1266 H       301      M_A    0.0000
   2112 H         207.0499   89.8088   49.6334 H       301      M_A    0.0000
   2113 H         206.9149   87.3401   51.2126 H       301      M_A    0.0000
   2114 H         207.8928   88.5762   52.0521 H       301      M_A    0.0000
   2115 C         209.2089   86.8086   50.4429 C.3     302      M_A    0.0000
   2116 C         210.7269   86.9340   50.4789 C.3     302      M_A    0.0000
   2117 O         211.2976   85.6395   50.2936 O.3     302      M_A    0.0000
   2118 H         208.8561   86.4510   51.4169 H       302      M_A    0.0000
   2119 H         208.9092   86.0714   49.6893 H       302      M_A    0.0000
   2120 H         211.0121   87.3323   51.4627 H       302      M_A    0.0000
   2121 H         211.0903   87.6200   49.7020 H       302      M_A    0.0000
   2122 C         212.6698   85.6465   50.6249 C.3     303      M_A    0.0000
   2123 C         213.4806   84.6613   49.7923 C.3     303      M_A    0.0000
   2124 O         213.8669   83.5684   50.6243 O.3     303      M_A    0.0000
   2125 H         213.0572   86.6583   50.4601 H       303      M_A    0.0000
   2126 H         212.7786   85.4181   51.6912 H       303      M_A    0.0000
   2127 H         214.3734   85.1838   49.4210 H       303      M_A    0.0000
   2128 H         212.9040   84.2943   48.9327 H       303      M_A    0.0000
   2129 C         213.9052   82.3668   49.8846 C.3     304      M_A    0.0000
   2130 C         215.1390   81.5269   50.1910 C.3     304      M_A    0.0000
   2131 O         215.5130   80.8160   49.0118 O.3     304      M_A    0.0000
   2132 H         213.0078   81.7863   50.1265 H       304      M_A    0.0000
   2133 H         213.8683   82.6067   48.8158 H       304      M_A    0.0000
   2134 H         214.8781   80.8181   50.9895 H       304      M_A    0.0000
   2135 H         215.9739   82.1526   50.5339 H       304      M_A    0.0000
   2136 C         216.0498   79.5523   49.3397 C.3     305      M_A    0.0000
   2137 C         217.5678   79.5086   49.2168 C.3     305      M_A    0.0000
   2138 O         217.9592   78.1867   48.8489 O.3     305      M_A    0.0000
   2139 H         215.7674   79.3171   50.3721 H       305      M_A    0.0000
   2140 H         215.5969   78.7948   48.6900 H       305      M_A    0.0000
   2141 H         217.9960   79.7679   50.1952 H       305      M_A    0.0000
   2142 H         217.9299   80.2293   48.4714 H       305      M_A    0.0000
   2143 C         219.2018   77.8539   49.4301 C.3     306      M_A    0.0000
   2144 C         220.1409   77.1586   48.4523 C.3     306      M_A    0.0000
   2145 O         220.5986   75.9432   49.0430 O.3     306      M_A    0.0000
   2146 H         219.6734   78.7777   49.7839 H       306      M_A    0.0000
   2147 H         219.0257   77.2149   50.3029 H       306      M_A    0.0000
   2148 H         220.9921   77.8279   48.2638 H       306      M_A    0.0000
   2149 H         219.6401   76.9478   47.4978 H       306      M_A    0.0000
   2150 C         221.5744   75.3287   48.2289 C.3     307      M_A    0.0000
   2151 C         221.6418   73.8198   48.4291 C.3     307      M_A    0.0000
   2152 O         222.9136   73.3549   47.9795 O.3     307      M_A    0.0000
   2153 H         221.3301   75.5403   47.1817 H       307      M_A    0.0000
   2154 H         222.5498   75.7812   48.4410 H       307      M_A    0.0000
   2155 H         220.8419   73.3612   47.8309 H       307      M_A    0.0000
   2156 H         221.4932   73.5490   49.4830 H       307      M_A    0.0000
   2157 C         222.9139   71.9493   47.8491 C.3     308      M_A    0.0000
   2158 C         224.2780   71.3329   48.1330 C.3     308      M_A    0.0000
   2159 O         224.7497   70.6986   46.9451 O.3     308      M_A    0.0000
   2160 H         222.1820   71.5392   48.5542 H       308      M_A    0.0000
   2161 H         222.5846   71.6867   46.8373 H       308      M_A    0.0000
   2162 H         224.1552   70.5885   48.9322 H       308      M_A    0.0000
   2163 H         224.9987   72.0918   48.4658 H       308      M_A    0.0000
   2164 C         226.1572   70.5918   46.9611 C.3     309      M_A    0.0000
   2165 C         226.6527   69.2670   46.3949 C.3     309      M_A    0.0000
   2166 O         227.9084   68.9537   46.9958 O.3     309      M_A    0.0000
   2167 H         226.5702   71.4130   46.3645 H       309      M_A    0.0000
   2168 H         226.5109   70.7178   47.9907 H       309      M_A    0.0000
   2169 H         226.7758   69.3858   45.3093 H       309      M_A    0.0000
   2170 H         225.9339   68.4580   46.5818 H       309      M_A    0.0000
   2171 C         228.1378   67.5610   46.9760 C.3     310      M_A    0.0000
   2172 C         229.6183   67.2101   46.8970 C.3     310      M_A    0.0000
   2173 O         229.7603   65.9827   46.1834 O.3     310      M_A    0.0000
   2174 H         227.7163   67.1308   47.8915 H       310      M_A    0.0000
   2175 H         227.6011   67.1250   46.1257 H       310      M_A    0.0000
   2176 H         229.9954   67.0934   47.9227 H       310      M_A    0.0000
   2177 H         230.1916   68.0035   46.3988 H       310      M_A    0.0000
   2178 C         231.0422   65.4294   46.3917 C.3     311      M_A    0.0000
   2179 C         231.5748   64.7015   45.1638 C.3     311      M_A    0.0000
   2180 O         232.6008   63.7995   45.5758 O.3     311      M_A    0.0000
   2181 H         231.7289   66.2430   46.6514 H       311      M_A    0.0000
   2182 H         230.9987   64.7450   47.2465 H       311      M_A    0.0000
   2183 H         231.9893   65.4523   44.4764 H       311      M_A    0.0000
   2184 H         230.7766   64.1525   44.6464 H       311      M_A    0.0000
   2185 C         233.5134   63.5672   44.5242 C.3     312      M_A    0.0000
   2186 C         234.0219   62.1313   44.4935 C.3     312      M_A    0.0000
   2187 O         235.4246   62.1370   44.7546 O.3     312      M_A    0.0000
   2188 H         233.0087   63.7885   43.5769 H       312      M_A    0.0000
   2189 H         234.3542   64.2630   44.6237 H       312      M_A    0.0000
   2190 H         233.8286   61.7233   43.4914 H       312      M_A    0.0000
   2191 H         233.5038   61.5074   45.2341 H       312      M_A    0.0000
   2192 C         235.8139   60.9532   45.4178 C.3     313      M_A    0.0000
   2193 C         237.0848   60.3451   44.8376 C.3     313      M_A    0.0000
   2194 O         237.0370   58.9301   45.0144 O.3     313      M_A    0.0000
   2195 H         235.9809   61.1910   46.4744 H       313      M_A    0.0000
   2196 H         234.9920   60.2302   45.3653 H       313      M_A    0.0000
   2197 H         237.9419   60.7627   45.3844 H       313      M_A    0.0000
   2198 H         237.1942   60.5878   43.7721 H       313      M_A    0.0000
   2199 C         238.1234   58.3084   44.3618 C.3     314      M_A    0.0000
   2200 C         238.4474   56.9355   44.9376 C.3     314      M_A    0.0000
   2201 O         239.7196   56.5203   44.4425 O.3     314      M_A    0.0000
   2202 H         237.8704   58.2010   43.3009 H       314      M_A    0.0000
   2203 H         239.0000   58.9625   44.4302 H       314      M_A    0.0000
   2204 H         237.6687   56.2348   44.6052 H       314      M_A    0.0000
   2205 H         238.4590   56.9547   46.0356 H       314      M_A    0.0000
   2206 C         239.7952   55.1122   44.3783 C.3     315      M_A    0.0000
   2207 C         241.2147   54.5906   44.5635 C.3     315      M_A    0.0000
   2208 O         241.5614   53.7956   43.4306 O.3     315      M_A    0.0000
   2209 H         239.1560   54.6981   45.1664 H       315      M_A    0.0000
   2210 H         239.3936   54.7787   43.4147 H       315      M_A    0.0000
   2211 H         241.2349   53.9752   45.4739 H       315      M_A    0.0000
   2212 H         241.9318   55.4143   44.6788 H       315      M_A    0.0000
   2213 C         242.8050   53.1579   43.6297 C.3     316      M_A    0.0000
   2214 C         243.5154   52.8333   42.3215 C.3     316      M_A    0.0000
   2215 O         244.5518   51.8889   42.5858 O.3     316      M_A    0.0000
   2216 H         243.4397   53.8228   44.2264 H       316      M_A    0.0000
   2217 H         242.6452   52.2417   44.2095 H       316      M_A    0.0000
   2218 H         243.9477   53.7645   41.9291 H       316      M_A    0.0000
   2219 H         242.8174   52.4275   41.5771 H       316      M_A    0.0000
   2220 C         244.1607   50.9893   43.6009 C.3     317      M_A    0.0000
   2221 C         245.3451   50.2829   44.2486 C.3     317      M_A    0.0000
   2222 O         245.6353   49.1005   43.5047 O.3     317      M_A    0.0000
   2223 H         243.6169   51.5527   44.3676 H       317      M_A    0.0000
   2224 H         243.4691   50.2532   43.1757 H       317      M_A    0.0000
   2225 H         245.0625   50.0188   45.2774 H       317      M_A    0.0000
   2226 H         246.2295   50.9331   44.2819 H       317      M_A    0.0000
   2227 C         246.0397   49.4235   42.1913 C.3     318      M_A    0.0000
   2228 C         247.1559   48.5207   41.6811 C.3     318      M_A    0.0000
   2229 O         248.3958   49.2175   41.7944 O.3     318      M_A    0.0000
   2230 H         245.1705   49.3261   41.5311 H       318      M_A    0.0000
   2231 H         246.3607   50.4710   42.1663 H       318      M_A    0.0000
   2232 H         246.9508   48.2891   40.6265 H       318      M_A    0.0000
   2233 H         247.1999   47.5802   42.2464 H       318      M_A    0.0000
   2234 C         249.3457   48.6971   40.8891 C.3     319      M_A    0.0000
   2235 C         249.4632   47.1800   40.9678 C.3     319      M_A    0.0000
   2236 O         250.7881   46.8444   41.3775 O.3     319      M_A    0.0000
   2237 H         249.0438   48.9805   39.8745 H       319      M_A    0.0000
   2238 H         250.3180   49.1615   41.0889 H       319      M_A    0.0000
   2239 H         249.2651   46.7711   39.9671 H       319      M_A    0.0000
   2240 H         248.7335   46.7582   41.6718 H       319      M_A    0.0000
   2241 C         250.9614   45.4438   41.4087 C.3     320      M_A    0.0000
   2242 C         252.3105   45.0310   41.9842 C.3     320      M_A    0.0000
   2243 O         252.6941   43.7857   41.4030 O.3     320      M_A    0.0000
   2244 H         250.1631   45.0130   42.0235 H       320      M_A    0.0000
   2245 H         250.8484   45.0494   40.3925 H       320      M_A    0.0000
   2246 H         252.1963   44.9182   43.0715 H       320      M_A    0.0000
   2247 H         253.0788   45.7907   41.7874 H       320      M_A    0.0000
   2248 C         253.3803   42.9865   42.3426 C.3     321      M_A    0.0000
   2249 C         254.7425   42.5256   41.8390 C.3     321      M_A    0.0000
   2250 O         254.7120   41.1094   41.6682 O.3     321      M_A    0.0000
   2251 H         253.5169   43.5738   43.2577 H       321      M_A    0.0000
   2252 H         252.7580   42.1199   42.5933 H       321      M_A    0.0000
   2253 H         255.4937   42.7962   42.5943 H       321      M_A    0.0000
   2254 H         255.0045   43.0135   40.8906 H       321      M_A    0.0000
   2255 C         255.9952   40.6176   41.3456 C.3     322      M_A    0.0000
   2256 C         256.5628   41.2431   40.0776 C.3     322      M_A    0.0000
   2257 O         257.5008   40.3361   39.5002 O.3     322      M_A    0.0000
   2258 H         256.6667   40.8354   42.1838 H       322      M_A    0.0000
   2259 H         255.9409   39.5284   41.2370 H       322      M_A    0.0000
   2260 H         257.0684   42.1783   40.3565 H       322      M_A    0.0000
   2261 H         255.7686   41.4737   39.3550 H       322      M_A    0.0000
   2262 C         256.8345   39.2660   38.8648 C.3     323      M_A    0.0000
   2263 C         257.0302   37.9392   39.5877 C.3     323      M_A    0.0000
   2264 O         258.1934   37.3000   39.0640 O.3     323      M_A    0.0000
   2265 H         255.7646   39.5004   38.8301 H       323      M_A    0.0000
   2266 H         257.1919   39.1888   37.8316 H       323      M_A    0.0000
   2267 H         256.1440   37.3164   39.4015 H       323      M_A    0.0000
   2268 H         257.1369   38.0857   40.6709 H       323      M_A    0.0000
   2269 C         258.7258   36.3873   40.0000 C.3     324      M_A    0.0000
   2270 C         260.2480   36.4228   40.0553 C.3     324      M_A    0.0000
   2271 O         260.7458   35.1094   39.8040 O.3     324      M_A    0.0000
   2272 H         258.3257   36.6376   40.9890 H       324      M_A    0.0000
   2273 H         258.3811   35.3781   39.7473 H       324      M_A    0.0000
   2274 H         260.5442   36.7499   41.0619 H       324      M_A    0.0000
   2275 H         260.6588   37.1279   39.3204 H       324      M_A    0.0000
   2276 C         260.2678   34.2004   40.7724 C.3     325      M_A    0.0000
   2277 C         261.3787   33.3574   41.3863 C.3     325      M_A    0.0000
   2278 O         261.6195   32.2328   40.5419 O.3     325      M_A    0.0000
   2279 H         259.7729   34.7726   41.5653 H       325      M_A    0.0000
   2280 H         259.5146   33.5525   40.3099 H       325      M_A    0.0000
   2281 H         261.0410   33.0181   42.3756 H       325      M_A    0.0000
   2282 H         262.3015   33.9399   41.5094 H       325      M_A    0.0000
   2283 C         262.6651   32.5052   39.6335 C.3     326      M_A    0.0000
   2284 C         263.5488   31.2916   39.3732 C.3     326      M_A    0.0000
   2285 O         264.8546   31.7442   39.0182 O.3     326      M_A    0.0000
   2286 H         262.2205   32.8338   38.6873 H       326      M_A    0.0000
   2287 H         263.2674   33.3336   40.0236 H       326      M_A    0.0000
   2288 H         263.1097   30.7233   38.5412 H       326      M_A    0.0000
   2289 H         263.6035   30.6398   40.2554 H       326      M_A    0.0000
   2290 C         265.5499   32.2054   40.1568 C.3     327      M_A    0.0000
   2291 C         267.0343   31.8643   40.1173 C.3     327      M_A    0.0000
   2292 O         267.2163   30.5518   40.6465 O.3     327      M_A    0.0000
   2293 H         265.4341   33.2938   40.2119 H       327      M_A    0.0000
   2294 H         265.0880   31.7758   41.0529 H       327      M_A    0.0000
   2295 H         267.5683   32.5967   40.7389 H       327      M_A    0.0000
   2296 H         267.4296   31.9156   39.0940 H       327      M_A    0.0000
   2297 C         268.2866   29.8967   39.9999 C.3     328      M_A    0.0000
   2298 C         267.9673   29.5343   38.5548 C.3     328      M_A    0.0000
   2299 O         268.5717   28.2774   38.2540 O.3     328      M_A    0.0000
   2300 H         269.1572   30.5620   40.0181 H       328      M_A    0.0000
   2301 H         268.5451   28.9948   40.5664 H       328      M_A    0.0000
   2302 H         268.3870   30.3169   37.9072 H       328      M_A    0.0000
   2303 H         266.8834   29.4807   38.3859 H       328      M_A    0.0000
   2304 C         268.5975   28.0566   36.8600 C.3     329      M_A    0.0000
   2305 C         269.0515   26.6484   36.4961 C.3     329      M_A    0.0000
   2306 O         270.4705   26.6494   36.3466 O.3     329      M_A    0.0000
   2307 H         267.5872   28.2194   36.4681 H       329      M_A    0.0000
   2308 H         269.2580   28.7976   36.3955 H       329      M_A    0.0000
   2309 H         268.5744   26.3723   35.5453 H       329      M_A    0.0000
   2310 H         268.7546   25.9213   37.2638 H       329      M_A    0.0000
   2311 C         270.9043   25.4775   35.6902 C.3     330      M_A    0.0000
   2312 C         271.2835   24.3660   36.6609 C.3     330      M_A    0.0000
   2313 O         272.6370   23.9866   36.4159 O.3     330      M_A    0.0000
   2314 H         270.0924   25.1262   35.0433 H       330      M_A    0.0000
   2315 H         271.7575   25.7251   35.0486 H       330      M_A    0.0000
   2316 H         270.6157   23.5124   36.4783 H       330      M_A    0.0000
   2317 H         271.1660   24.6885   37.7041 H       330      M_A    0.0000
   2318 C         272.9247   22.7442   37.0212 C.3     331      M_A    0.0000
   2319 C         274.4203   22.4981   37.1762 C.3     331      M_A    0.0000
   2320 O         274.7235   21.1954   36.6792 O.3     331      M_A    0.0000
   2321 H         272.4547   22.7279   38.0110 H       331      M_A    0.0000
   2322 H         272.4709   21.9450   36.4242 H       331      M_A    0.0000
   2323 H         274.6657   22.5579   38.2458 H       331      M_A    0.0000
   2324 H         275.0081   23.2528   36.6368 H       331      M_A    0.0000
   2325 C         276.1198   20.9973   36.6170 C.3     332      M_A    0.0000
   2326 C         276.4991   19.7059   35.9029 C.3     332      M_A    0.0000
   2327 O         277.7389   19.2378   36.4317 O.3     332      M_A    0.0000
   2328 H         276.5631   21.8452   36.0828 H       332      M_A    0.0000
   2329 H         276.5240   20.9976   37.6357 H       332      M_A    0.0000
   2330 H         276.6082   19.9286   34.8322 H       332      M_A    0.0000
   2331 H         275.7236   18.9380   36.0260 H       332      M_A    0.0000
   2332 C         277.9999   17.9194   36.0000 C.3     333      M_A    0.0000
   2333 C         279.3886   17.4347   36.3977 C.3     333      M_A    0.0000
   2334 O         279.8277   16.4704   35.4422 O.3     333      M_A    0.0000
   2335 H         277.2486   17.2576   36.4454 H       333      M_A    0.0000
   2336 H         277.8815   17.8723   34.9115 H       333      M_A    0.0000
   2337 H         279.3154   16.9715   37.3917 H       333      M_A    0.0000
   2338 H         280.1035   18.2668   36.4484 H       333      M_A    0.0000
   2339 C         280.2174   17.0999   34.2403 C.3     334      M_A    0.0000
   2340 C         281.1071   16.2159   33.3753 C.3     334      M_A    0.0000
   2341 O         282.4551   16.3439   33.8249 O.3     334      M_A    0.0000
   2342 H         279.3123   17.3561   33.6782 H       334      M_A    0.0000
   2343 H         280.7354   18.0352   34.4813 H       334      M_A    0.0000
   2344 H         281.0238   16.5630   32.3358 H       334      M_A    0.0000
   2345 H         280.7931   15.1645   33.4220 H       334      M_A    0.0000
   2346 C         283.2388   15.2624   33.3679 C.3     335      M_A    0.0000
   2347 C         282.8842   13.9485   34.0531 C.3     335      M_A    0.0000
   2348 O         284.0912   13.2512   34.3579 O.3     335      M_A    0.0000
   2349 H         283.0816   15.1569   32.2885 H       335      M_A    0.0000
   2350 H         284.2970   15.4979   33.5286 H       335      M_A    0.0000
   2351 H         282.2741   13.3558   33.3572 H       335      M_A    0.0000
   2352 H         282.3062   14.1193   34.9712 H       335      M_A    0.0000
   2353 C         284.6549   12.6945   33.1896 C.3     336      M_A    0.0000
   2354 C         284.9980   11.2185   33.3482 C.3     336      M_A    0.0000
   2355 O         286.4125   11.0896   33.4845 O.3     336      M_A    0.0000
   2356 H         283.9335   12.8085   32.3727 H       336      M_A    0.0000
   2357 H         285.5526   13.2637   32.9227 H       336      M_A    0.0000
   2358 H         284.6586   10.6915   32.4454 H       336      M_A    0.0000
   2359 H         284.4946   10.7822   34.2212 H       336      M_A    0.0000
   2360 C         286.7736    9.7402   33.6884 C.3     337      M_A    0.0000
   2361 C         288.1648    9.5885   34.2908 C.3     337      M_A    0.0000
   2362 O         288.6786    8.3050   33.9383 O.3     337      M_A    0.0000
   2363 H         286.0395    9.2871   34.3642 H       337      M_A    0.0000
   2364 H         286.7170    9.2092   32.7314 H       337      M_A    0.0000
   2365 H         288.0731    9.6688   35.3831 H       337      M_A    0.0000
   2366 H         288.8429   10.3759   33.9352 H       337      M_A    0.0000
   2367 C         290.0386    8.3951   33.5711 C.3     338      M_A    0.0000
   2368 C         290.5409    7.1425   32.8639 C.3     338      M_A    0.0000
   2369 O         291.5212    6.5136   33.6882 O.3     338      M_A    0.0000
   2370 H         290.1572    9.2554   32.9028 H       338      M_A    0.0000
   2371 H         290.6368    8.5865   34.4693 H       338      M_A    0.0000
   2372 H         290.9933    7.4486   31.9102 H       338      M_A    0.0000
   2373 H         289.7196    6.4436   32.6563 H       338      M_A    0.0000
   2374 C         291.9130    5.2731   33.1403 C.3     339      M_A    0.0000
   2375 C         292.9511    4.5551   33.9937 C.3     339      M_A    0.0000
   2376 O         293.5978    3.5672   33.1926 O.3     339      M_A    0.0000
   2377 H         291.0225    4.6405   33.0522 H       339      M_A    0.0000
   2378 H         292.3046    5.4390   32.1303 H       339      M_A    0.0000
   2379 H         292.4283    4.0744   34.8325 H       339      M_A    0.0000
   2380 H         293.6929    5.2575   34.3966 H       339      M_A    0.0000
   2381 C         294.1938    2.5780   34.0043 C.3     340      M_A    0.0000
   2382 C         295.5315    2.0959   33.4569 C.3     340      M_A    0.0000
   2383 O         295.4205    0.7110   33.1319 O.3     340      M_A    0.0000
   2384 H         294.3474    3.0009   35.0035 H       340      M_A    0.0000
   2385 H         293.5007    1.7348   34.1028 H       340      M_A    0.0000
   2386 H         296.2903    2.2379   34.2393 H       340      M_A    0.0000
   2387 H         295.8300    2.6682   32.5684 H       340      M_A    0.0000
   2388 C         296.6557    0.2055   32.6719 C.3     341      M_A    0.0000
   2389 C         296.4897   -0.9336   31.6738 C.3     341      M_A    0.0000
   2390 O         297.7404   -1.6061   31.5349 O.3     341      M_A    0.0000
   2391 H         297.2043    1.0242   32.1927 H       341      M_A    0.0000
   2392 H         297.2445   -0.1304   33.5330 H       341      M_A    0.0000
   2393 H         296.1879   -0.5001   30.7100 H       341      M_A    0.0000
   2394 H         295.7159   -1.6416   31.9996 H       341      M_A    0.0000
   2395 C         298.4370   -1.6236   32.7625 C.3     342      M_A    0.0000
   2396 C         299.9373   -1.8211   32.5844 C.3     342      M_A    0.0000
   2397 O         300.2325   -3.2123   32.6991 O.3     342      M_A    0.0000
   2398 H         298.2595   -0.6693   33.2712 H       342      M_A    0.0000
   2399 H         298.0243   -2.4188   33.3936 H       342      M_A    0.0000
   2400 H         300.4507   -1.2619   33.3792 H       342      M_A    0.0000
   2401 H         300.2779   -1.4432   31.6111 H       342      M_A    0.0000
   2402 C         301.6015   -3.4108   32.9799 C.3     343      M_A    0.0000
   2403 C         302.3991   -3.8289   31.7509 C.3     343      M_A    0.0000
   2404 O         302.9513   -5.1240   31.9826 O.3     343      M_A    0.0000
   2405 H         302.0112   -2.4723   33.3703 H       343      M_A    0.0000
   2406 H         301.6964   -4.1680   33.7665 H       343      M_A    0.0000
   2407 H         303.2065   -3.0977   31.6044 H       343      M_A    0.0000
   2408 H         301.7695   -3.8438   30.8513 H       343      M_A    0.0000
   2409 C         303.5497   -5.6291   30.8082 C.3     344      M_A    0.0000
   2410 C         304.4031   -6.8644   31.0677 C.3     344      M_A    0.0000
   2411 O         305.5259   -6.8380   30.1876 O.3     344      M_A    0.0000
   2412 H         302.7532   -5.8865   30.1008 H       344      M_A    0.0000
   2413 H         304.1578   -4.8398   30.3518 H       344      M_A    0.0000
   2414 H         303.7877   -7.7519   30.8640 H       344      M_A    0.0000
   2415 H         304.7437   -6.9034   32.1111 H       344      M_A    0.0000
   2416 C         305.8096   -5.5167   29.7797 C.3     345      M_A    0.0000
   2417 C         304.6002   -4.5961   29.8858 C.3     345      M_A    0.0000
   2418 O         304.3977   -3.9596   28.6249 O.3     345      M_A    0.0000
   2419 H         306.6131   -5.1267   30.4148 H       345      M_A    0.0000
   2420 H         306.1800   -5.5354   28.7484 H       345      M_A    0.0000
   2421 H         304.8131   -3.8422   30.6567 H       345      M_A    0.0000
   2422 H         303.6985   -5.1519   30.1758 H       345      M_A    0.0000
   2423 C         305.4106   -3.0081   28.3776 C.3     346      M_A    0.0000
   2424 C         305.3237   -1.8022   29.3048 C.3     346      M_A    0.0000
   2425 O         304.4571   -0.8337   28.7158 O.3     346      M_A    0.0000
   2426 H         306.3817   -3.4969   28.5161 H       346      M_A    0.0000
   2427 H         305.3467   -2.6853   27.3322 H       346      M_A    0.0000
   2428 H         306.3341   -1.3839   29.4145 H       346      M_A    0.0000
   2429 H         304.9503   -2.0869   30.2975 H       346      M_A    0.0000
   2430 C         303.1526   -0.9440   29.2439 C.3     347      M_A    0.0000
   2431 C         302.7324    0.2887   30.0347 C.3     347      M_A    0.0000
   2432 O         301.5681    0.8468   29.4275 O.3     347      M_A    0.0000
   2433 H         302.4562   -1.0892   28.4104 H       347      M_A    0.0000
   2434 H         303.1013   -1.8353   29.8796 H       347      M_A    0.0000
   2435 H         303.5580    1.0134   29.9991 H       347      M_A    0.0000
   2436 H         302.5268    0.0398   31.0844 H       347      M_A    0.0000
   2437 C         300.4333    0.6420   30.2417 C.3     348      M_A    0.0000
   2438 C         299.9079    1.9345   30.8538 C.3     348      M_A    0.0000
   2439 O         300.0000    1.8385   32.2745 O.3     348      M_A    0.0000
   2440 H         299.6464    0.1916   29.6263 H       348      M_A    0.0000
   2441 H         300.6880   -0.0733   31.0321 H       348      M_A    0.0000
   2442 H         298.8572    2.0509   30.5531 H       348      M_A    0.0000
   2443 H         300.4749    2.8052   30.4980 H       348      M_A    0.0000
   2444 C         298.8083    2.2874   32.8836 C.3     349      M_A    0.0000
   2445 C         298.1653    3.4472   32.1333 C.3     349      M_A    0.0000
   2446 O         298.4228    4.6542   32.8492 O.3     349      M_A    0.0000
   2447 H         298.1038    1.4488   32.9180 H       349      M_A    0.0000
   2448 H         299.0266    2.5813   33.9166 H       349      M_A    0.0000
   2449 H         297.0828    3.2630   32.0857 H       349      M_A    0.0000
   2450 H         298.5547    3.5265   31.1095 H       349      M_A    0.0000
   2451 C         298.2981    5.7748   32.0000 C.3     350      M_A    0.0000
   2452 C         297.1163    6.6631   32.3685 C.3     350      M_A    0.0000
   2453 O         296.1335    6.5677   31.3385 O.3     350      M_A    0.0000
   2454 H         299.2214    6.3611   32.0679 H       350      M_A    0.0000
   2455 H         298.2001    5.4269   30.9654 H       350      M_A    0.0000
   2456 H         297.4794    7.6976   32.4459 H       350      M_A    0.0000
   2457 H         296.6804    6.3695   33.3328 H       350      M_A    0.0000
   2458 C         294.8338    6.6902   31.8756 C.3     351      M_A    0.0000
   2459 C         294.1946    8.0382   31.5665 C.3     351      M_A    0.0000
   2460 O         294.0576    8.7696   32.7840 O.3     351      M_A    0.0000
   2461 H         294.2115    5.8935   31.4526 H       351      M_A    0.0000
   2462 H         294.8816    6.5351   32.9594 H       351      M_A    0.0000
   2463 H         293.2045    7.8524   31.1271 H       351      M_A    0.0000
   2464 H         294.7967    8.6115   30.8489 H       351      M_A    0.0000
   2465 C         293.5568   10.0655   32.5344 C.3     352      M_A    0.0000
   2466 C         293.0646   10.7591   33.7985 C.3     352      M_A    0.0000
   2467 O         292.1479   11.7880   33.4286 O.3     352      M_A    0.0000
   2468 H         294.3592   10.6632   32.0875 H       352      M_A    0.0000
   2469 H         292.7450    9.9972   31.8013 H       352      M_A    0.0000
   2470 H         293.9349   11.1972   34.3070 H       352      M_A    0.0000
   2471 H         292.5781   10.0493   34.4809 H       352      M_A    0.0000
   2472 C         290.9401   11.2334   32.9530 C.3     353      M_A    0.0000
   2473 C         290.1100   12.2302   32.1538 C.3     353      M_A    0.0000
   2474 O         289.5129   13.1578   33.0586 O.3     353      M_A    0.0000
   2475 H         291.1840   10.3771   32.3141 H       353      M_A    0.0000
   2476 H         290.3617   10.8587   33.8052 H       353      M_A    0.0000
   2477 H         289.3287   11.6712   31.6198 H       353      M_A    0.0000
   2478 H         290.7258   12.7651   31.4184 H       353      M_A    0.0000
   2479 C         288.2472   13.5697   32.5886 C.3     354      M_A    0.0000
   2480 C         287.7089   14.7834   33.3358 C.3     354      M_A    0.0000
   2481 O         287.4404   14.4076   34.6858 O.3     354      M_A    0.0000
   2482 H         288.3399   13.8164   31.5248 H       354      M_A    0.0000
   2483 H         287.5462   12.7317   32.6759 H       354      M_A    0.0000
   2484 H         286.7794   15.1016   32.8431 H       354      M_A    0.0000
   2485 H         288.4235   15.6171   33.3124 H       354      M_A    0.0000
   2486 C         286.0812   14.6201   35.0025 C.3     355      M_A    0.0000
   2487 C         285.6647   16.0784   34.8564 C.3     355      M_A    0.0000
   2488 O         285.9052   16.7490   36.0926 O.3     355      M_A    0.0000
   2489 H         285.4722   14.0048   34.3306 H       355      M_A    0.0000
   2490 H         285.8975   14.2762   36.0267 H       355      M_A    0.0000
   2491 H         284.5919   16.1035   34.6185 H       355      M_A    0.0000
   2492 H         286.2170   16.5731   34.0463 H       355      M_A    0.0000
   2493 C         285.5583   18.1139   35.9960 C.3     356      M_A    0.0000
   2494 C         285.9519   18.9096   37.2343 C.3     356      M_A    0.0000
   2495 O         285.2587   20.1565   37.2165 O.3     356      M_A    0.0000
   2496 H         286.0675   18.5362   35.1224 H       356      M_A    0.0000
   2497 H         284.4790   18.1945   35.8234 H       356      M_A    0.0000
   2498 H         287.0366   19.0829   37.1967 H       356      M_A    0.0000
   2499 H         285.7145   18.3602   38.1552 H       356      M_A    0.0000
   2500 C         284.3856   20.2267   36.1094 C.3     357      M_A    0.0000
   2501 C         283.9422   21.6511   35.7997 C.3     357      M_A    0.0000
   2502 O         282.6439   21.8569   36.3544 O.3     357      M_A    0.0000
   2503 H         284.9050   19.8156   35.2364 H       357      M_A    0.0000
   2504 H         283.5124   19.5941   36.3054 H       357      M_A    0.0000
   2505 H         283.9059   21.7661   34.7073 H       357      M_A    0.0000
   2506 H         284.6471   22.3874   36.2085 H       357      M_A    0.0000
   2507 C         282.3902   23.2339   36.5341 C.3     358      M_A    0.0000
   2508 C         281.4374   23.5101   37.6905 C.3     358      M_A    0.0000
   2509 O         280.5800   24.5917   37.3285 O.3     358      M_A    0.0000
   2510 H         283.3447   23.7359   36.7289 H       358      M_A    0.0000
   2511 H         281.9824   23.6441   35.6032 H       358      M_A    0.0000
   2512 H         282.0387   23.7857   38.5683 H       358      M_A    0.0000
   2513 H         280.8397   22.6225   37.9373 H       358      M_A    0.0000
   2514 C         279.3689   24.5322   38.0513 C.3     359      M_A    0.0000
   2515 C         278.6111   25.8539   38.0385 C.3     359      M_A    0.0000
   2516 O         277.7067   25.8735   39.1418 O.3     359      M_A    0.0000
   2517 H         278.7400   23.7546   37.6033 H       359      M_A    0.0000
   2518 H         279.5855   24.2317   39.0827 H       359      M_A    0.0000
   2519 H         278.0522   25.9165   37.0942 H       359      M_A    0.0000
   2520 H         279.2974   26.7092   38.0993 H       359      M_A    0.0000
   2521 C         277.5193   27.1917   39.6106 C.3     360      M_A    0.0000
   2522 C         276.1135   27.4305   40.1474 C.3     360      M_A    0.0000
   2523 O         275.4081   28.2635   39.2284 O.3     360      M_A    0.0000
   2524 H         278.2444   27.3775   40.4110 H       360      M_A    0.0000
   2525 H         277.7359   27.8923   38.7961 H       360      M_A    0.0000
   2526 H         276.2018   27.9355   41.1196 H       360      M_A    0.0000
   2527 H         275.5733   26.4849   40.2891 H       360      M_A    0.0000
   2528 C         274.0348   28.3121   39.5512 C.3     361      M_A    0.0000
   2529 C         273.1806   28.8456   38.4079 C.3     361      M_A    0.0000
   2530 O         272.6412   30.1097   38.7910 O.3     361      M_A    0.0000
   2531 H         273.7050   27.2973   39.8011 H       361      M_A    0.0000
   2532 H         273.9018   28.9344   40.4435 H       361      M_A    0.0000
   2533 H         272.3666   28.1292   38.2285 H       361      M_A    0.0000
   2534 H         273.7673   28.9508   37.4854 H       361      M_A    0.0000
   2535 C         272.2561   30.0975   40.1489 C.3     362      M_A    0.0000
   2536 C         270.7437   30.0675   40.3310 C.3     362      M_A    0.0000
   2537 O         270.3967   28.9080   41.0867 O.3     362      M_A    0.0000
   2538 H         272.6911   29.2092   40.6208 H       362      M_A    0.0000
   2539 H         272.6783   30.9785   40.6455 H       362      M_A    0.0000
   2540 H         270.2821   30.0179   39.3347 H       362      M_A    0.0000
   2541 H         270.3842   30.9709   40.8415 H       362      M_A    0.0000
   2542 C         269.0806   28.4934   40.7890 C.3     363      M_A    0.0000
   2543 C         268.0290   29.2627   41.5788 C.3     363      M_A    0.0000
   2544 O         267.8059   28.5916   42.8180 O.3     363      M_A    0.0000
   2545 H         268.9068   28.6465   39.7179 H       363      M_A    0.0000
   2546 H         268.9926   27.4197   40.9902 H       363      M_A    0.0000
   2547 H         267.1025   29.2768   40.9877 H       363      M_A    0.0000
   2548 H         268.3452   30.2981   41.7633 H       363      M_A    0.0000
   2549 C         266.4867   28.8069   43.2720 C.3     364      M_A    0.0000
   2550 C         266.0034   30.2298   43.0208 C.3     364      M_A    0.0000
   2551 O         264.9577   30.5277   43.9447 O.3     364      M_A    0.0000
   2552 H         265.8254   28.1067   42.7492 H       364      M_A    0.0000
   2553 H         266.4373   28.5752   44.3420 H       364      M_A    0.0000
   2554 H         265.6210   30.2825   41.9917 H       364      M_A    0.0000
   2555 H         266.8206   30.9552   43.1307 H       364      M_A    0.0000
   2556 C         263.6984   30.4687   43.3096 C.3     365      M_A    0.0000
   2557 C         262.9124   31.7672   43.4407 C.3     365      M_A    0.0000
   2558 O         262.9422   32.1844   44.8049 O.3     365      M_A    0.0000
   2559 H         263.8598   30.2537   42.2472 H       365      M_A    0.0000
   2560 H         263.1254   29.6365   43.7342 H       365      M_A    0.0000
   2561 H         261.8763   31.5705   43.1312 H       365      M_A    0.0000
   2562 H         263.3290   32.5539   42.7975 H       365      M_A    0.0000
   2563 C         262.4437   33.4985   44.9362 C.3     366      M_A    0.0000
   2564 C         262.9766   34.4394   43.8629 C.3     366      M_A    0.0000
   2565 O         263.2223   35.7148   44.4536 O.3     366      M_A    0.0000
   2566 H         261.3507   33.4592   44.8673 H       366      M_A    0.0000
   2567 H         262.7009   33.8777   45.9318 H       366      M_A    0.0000
   2568 H         262.2112   34.5301   43.0795 H       366      M_A    0.0000
   2569 H         263.8989   34.0500   43.4114 H       366      M_A    0.0000
   2570 C         264.0837   36.4837   43.6415 C.3     367      M_A    0.0000
   2571 C         263.7089   37.9603   43.6201 C.3     367      M_A    0.0000
   2572 O         263.4682   38.3519   42.2693 O.3     367      M_A    0.0000
   2573 H         265.1037   36.3788   44.0279 H       367      M_A    0.0000
   2574 H         264.0697   36.0764   42.6241 H       367      M_A    0.0000
   2575 H         264.5531   38.5315   44.0314 H       367      M_A    0.0000
   2576 H         262.8188   38.1562   44.2329 H       367      M_A    0.0000
   2577 C         264.2422   37.5765   41.3792 C.3     368      M_A    0.0000
   2578 C         264.7646   38.3841   40.1976 C.3     368      M_A    0.0000
   2579 O         264.4989   37.6616   38.9963 O.3     368      M_A    0.0000
   2580 H         265.0921   37.1633   41.9341 H       368      M_A    0.0000
   2581 H         263.6369   36.7352   41.0228 H       368      M_A    0.0000
   2582 H         265.8486   38.5126   40.3260 H       368      M_A    0.0000
   2583 H         264.2950   39.3758   40.1519 H       368      M_A    0.0000
   2584 C         264.3015   36.2911   39.2711 C.3     369      M_A    0.0000
   2585 C         264.0115   35.4759   38.0170 C.3     369      M_A    0.0000
   2586 O         262.6759   35.7464   37.5942 O.3     369      M_A    0.0000
   2587 H         265.2083   35.9030   39.7486 H       369      M_A    0.0000
   2588 H         263.4781   36.1876   39.9869 H       369      M_A    0.0000
   2589 H         264.1161   34.4117   38.2713 H       369      M_A    0.0000
   2590 H         264.7174   35.7167   37.2110 H       369      M_A    0.0000
   2591 C         262.4118   35.1327   36.3507 C.3     370      M_A    0.0000
   2592 C         260.9322   35.1529   35.9875 C.3     370      M_A    0.0000
   2593 O         260.3594   33.8922   36.3315 O.3     370      M_A    0.0000
   2594 H         262.9773   35.6658   35.5781 H       370      M_A    0.0000
   2595 H         262.7790   34.1005   36.3792 H       370      M_A    0.0000
   2596 H         260.8501   35.3191   34.9042 H       370      M_A    0.0000
   2597 H         260.4031   35.9615   36.5094 H       370      M_A    0.0000
   2598 C         258.9513   33.9434   36.2456 C.3     371      M_A    0.0000
   2599 C         258.3285   34.8262   37.3200 C.3     371      M_A    0.0000
   2600 O         258.0007   34.0139   38.4463 O.3     371      M_A    0.0000
   2601 H         258.6819   34.3365   35.2588 H       371      M_A    0.0000
   2602 H         258.5541   32.9245   36.3177 H       371      M_A    0.0000
   2603 H         257.4162   35.2761   36.9038 H       371      M_A    0.0000
   2604 H         259.0121   35.6308   37.6225 H       371      M_A    0.0000
   2605 C         257.7881   32.6754   38.0516 C.3     372      M_A    0.0000
   2606 C         257.0060   32.5637   36.7489 C.3     372      M_A    0.0000
   2607 O         255.6155   32.4747   37.0563 O.3     372      M_A    0.0000
   2608 H         258.7654   32.1959   37.9247 H       372      M_A    0.0000
   2609 H         257.2606   32.1481   38.8546 H       372      M_A    0.0000
   2610 H         257.3349   31.6513   36.2318 H       372      M_A    0.0000
   2611 H         257.1924   33.4261   36.0951 H       372      M_A    0.0000
   2612 C         255.3113   31.2242   37.6363 C.3     373      M_A    0.0000
   2613 C         254.1794   31.3075   38.6529 C.3     373      M_A    0.0000
   2614 O         254.7269   31.6752   39.9181 O.3     373      M_A    0.0000
   2615 H         255.0223   30.5354   36.8344 H       373      M_A    0.0000
   2616 H         256.2147   30.8234   38.1098 H       373      M_A    0.0000
   2617 H         253.7100   30.3160   38.7212 H       373      M_A    0.0000
   2618 H         253.4185   32.0373   38.3457 H       373      M_A    0.0000
   2619 C         254.3871   33.0067   40.2413 C.3     374      M_A    0.0000
   2620 C         255.5329   33.9812   39.9990 C.3     374      M_A    0.0000
   2621 O         256.3448   34.0334   41.1711 O.3     374      M_A    0.0000
   2622 H         253.5302   33.3012   39.6250 H       374      M_A    0.0000
   2623 H         254.0724   33.0480   41.2903 H       374      M_A    0.0000
   2624 H         255.1004   34.9715   39.7979 H       374      M_A    0.0000
   2625 H         256.1391   33.6792   39.1345 H       374      M_A    0.0000
   2626 C         257.6320   34.5258   40.8654 C.3     375      M_A    0.0000
   2627 C         258.4532   34.8373   42.1104 C.3     375      M_A    0.0000
   2628 O         257.8745   35.9620   42.7707 O.3     375      M_A    0.0000
   2629 H         258.1564   33.7693   40.2707 H       375      M_A    0.0000
   2630 H         257.5305   35.4242   40.2461 H       375      M_A    0.0000
   2631 H         259.4775   35.0759   41.7912 H       375      M_A    0.0000
   2632 H         258.4878   33.9773   42.7925 H       375      M_A    0.0000
   2633 C         258.5915   37.1404   42.4710 C.3     376      M_A    0.0000
   2634 C         258.5222   38.1715   43.5906 C.3     376      M_A    0.0000
   2635 O         257.2263   38.7684   43.5834 O.3     376      M_A    0.0000
   2636 H         259.6393   36.8698   42.2979 H       376      M_A    0.0000
   2637 H         258.2000   37.5672   41.5406 H       376      M_A    0.0000
   2638 H         259.2882   38.9356   43.3973 H       376      M_A    0.0000
   2639 H         258.7201   37.7136   44.5691 H       376      M_A    0.0000
   2640 C         256.2772   37.8944   43.0105 C.3     377      M_A    0.0000
   2641 C         255.0166   38.6157   42.5501 C.3     377      M_A    0.0000
   2642 O         254.0123   37.6437   42.2631 O.3     377      M_A    0.0000
   2643 H         256.7417   37.4005   42.1495 H       377      M_A    0.0000
   2644 H         256.0222   37.1188   43.7415 H       377      M_A    0.0000
   2645 H         255.2615   39.1817   41.6404 H       377      M_A    0.0000
   2646 H         254.6546   39.3163   43.3144 H       377      M_A    0.0000
   2647 C         252.9018   38.2444   41.6317 C.3     378      M_A    0.0000
   2648 C         252.2934   37.3625   40.5484 C.3     378      M_A    0.0000
   2649 O         251.9413   38.1824   39.4351 O.3     378      M_A    0.0000
   2650 H         252.1426   38.4492   42.3949 H       378      M_A    0.0000
   2651 H         253.2127   39.2050   41.2054 H       378      M_A    0.0000
   2652 H         251.3937   36.8864   40.9630 H       378      M_A    0.0000
   2653 H         252.9932   36.5777   40.2314 H       378      M_A    0.0000
   2654 C         250.8274   38.9927   39.7441 C.3     379      M_A    0.0000
   2655 C         250.5749   40.0695   38.6962 C.3     379      M_A    0.0000
   2656 O         250.4120   41.3229   39.3581 O.3     379      M_A    0.0000
   2657 H         249.9438   38.3484   39.8155 H       379      M_A    0.0000
   2658 H         250.9844   39.4521   40.7266 H       379      M_A    0.0000
   2659 H         249.6544   39.8085   38.1553 H       379      M_A    0.0000
   2660 H         251.4020   40.1289   37.9761 H       379      M_A    0.0000
   2661 C         249.8321   42.2739   38.4910 C.3     380      M_A    0.0000
   2662 C         249.8798   43.6889   39.0539 C.3     380      M_A    0.0000
   2663 O         251.0975   44.3058   38.6385 O.3     380      M_A    0.0000
   2664 H         250.3766   42.2483   37.5403 H       380      M_A    0.0000
   2665 H         248.7950   41.9834   38.2883 H       380      M_A    0.0000
   2666 H         249.8493   43.6199   40.1504 H       380      M_A    0.0000
   2667 H         249.0215   44.2839   38.7141 H       380      M_A    0.0000
   2668 C         250.9097   45.6888   38.4267 C.3     381      M_A    0.0000
   2669 C         249.6524   45.9950   37.6226 C.3     381      M_A    0.0000
   2670 O         249.9950   46.8796   36.5568 O.3     381      M_A    0.0000
   2671 H         250.8376   46.1788   39.4043 H       381      M_A    0.0000
   2672 H         251.7915   46.0926   37.9163 H       381      M_A    0.0000
   2673 H         248.9288   46.4788   38.2937 H       381      M_A    0.0000
   2674 H         249.2015   45.0780   37.2202 H       381      M_A    0.0000
   2675 C         248.8537   47.2078   35.7937 C.3     382      M_A    0.0000
   2676 C         248.5495   48.7007   35.8032 C.3     382      M_A    0.0000
   2677 O         247.1373   48.8793   35.9024 O.3     382      M_A    0.0000
   2678 H         249.0269   46.8843   34.7611 H       382      M_A    0.0000
   2679 H         247.9954   46.6456   36.1790 H       382      M_A    0.0000
   2680 H         248.9163   49.1286   34.8596 H       382      M_A    0.0000
   2681 H         249.0522   49.2062   36.6385 H       382      M_A    0.0000
   2682 C         246.6921   48.6183   37.2162 C.3     383      M_A    0.0000
   2683 C         245.2044   48.2956   37.2796 C.3     383      M_A    0.0000
   2684 O         244.4803   49.5105   37.4689 O.3     383      M_A    0.0000
   2685 H         247.2600   47.7670   37.6082 H       383      M_A    0.0000
   2686 H         246.9168   49.4865   37.8462 H       383      M_A    0.0000
   2687 H         245.0382   47.6231   38.1329 H       383      M_A    0.0000
   2688 H         244.8644   47.7938   36.3638 H       383      M_A    0.0000
   2689 C         244.2713   50.1646   36.2355 C.3     384      M_A    0.0000
   2690 C         243.2094   51.2538   36.3203 C.3     384      M_A    0.0000
   2691 O         242.1665   50.9491   35.3954 O.3     384      M_A    0.0000
   2692 H         245.2200   50.6134   35.9202 H       384      M_A    0.0000
   2693 H         243.9888   49.4202   35.4824 H       384      M_A    0.0000
   2694 H         243.6806   52.2099   36.0526 H       384      M_A    0.0000
   2695 H         242.7996   51.3350   37.3360 H       384      M_A    0.0000
   2696 C         241.3391   52.0737   35.1875 C.3     385      M_A    0.0000
   2697 C         240.9104   52.7370   36.4904 C.3     385      M_A    0.0000
   2698 O         239.5970   53.2688   36.3226 O.3     385      M_A    0.0000
   2699 H         241.8928   52.7996   34.5814 H       385      M_A    0.0000
   2700 H         240.4578   51.7647   34.6139 H       385      M_A    0.0000
   2701 H         241.6187   53.5488   36.7079 H       385      M_A    0.0000
   2702 H         240.9238   52.0242   37.3257 H       385      M_A    0.0000
   2703 C         239.5170   54.5767   36.8476 C.3     386      M_A    0.0000
   2704 C         238.1278   54.9148   37.3742 C.3     386      M_A    0.0000
   2705 O         237.8573   56.2891   37.1021 O.3     386      M_A    0.0000
   2706 H         240.2407   54.6627   37.6660 H       386      M_A    0.0000
   2707 H         239.8091   55.2903   36.0688 H       386      M_A    0.0000
   2708 H         238.1233   54.7393   38.4592 H       386      M_A    0.0000
   2709 H         237.3593   54.2813   36.9114 H       386      M_A    0.0000
   2710 C         237.6289   56.9998   38.3002 C.3     387      M_A    0.0000
   2711 C         236.8253   58.2759   38.0827 C.3     387      M_A    0.0000
   2712 O         237.5320   59.3673   38.6703 O.3     387      M_A    0.0000
   2713 H         237.0819   56.3453   38.9883 H       387      M_A    0.0000
   2714 H         238.5941   57.2361   38.7623 H       387      M_A    0.0000
   2715 H         235.8504   58.1519   38.5746 H       387      M_A    0.0000
   2716 H         236.6593   58.4669   37.0140 H       387      M_A    0.0000
   2717 C         237.2193   60.5766   38.0127 C.3     388      M_A    0.0000
   2718 C         237.2430   61.7782   38.9492 C.3     388      M_A    0.0000
   2719 O         236.3421   62.7654   38.4497 O.3     388      M_A    0.0000
   2720 H         237.9523   60.7316   37.2130 H       388      M_A    0.0000
   2721 H         236.2324   60.4818   37.5458 H       388      M_A    0.0000
   2722 H         238.2667   62.1778   38.9641 H       388      M_A    0.0000
   2723 H         236.9606   61.4941   39.9718 H       388      M_A    0.0000
   2724 C         236.8378   64.0640   38.6958 C.3     389      M_A    0.0000
   2725 C         235.7765   65.0018   39.2577 C.3     389      M_A    0.0000
   2726 O         235.7849   66.2097   38.4983 O.3     389      M_A    0.0000
   2727 H         237.6626   63.9861   39.4132 H       389      M_A    0.0000
   2728 H         237.2452   64.4710   37.7633 H       389      M_A    0.0000
   2729 H         236.0316   65.2155   40.3052 H       389      M_A    0.0000
   2730 H         234.7792   64.5432   39.2243 H       389      M_A    0.0000
   2731 C         234.5468   66.8784   38.6102 C.3     390      M_A    0.0000
   2732 C         234.3931   68.0047   37.5956 C.3     390      M_A    0.0000
   2733 O         234.1774   69.2275   38.2985 O.3     390      M_A    0.0000
   2734 H         233.7462   66.1461   38.4561 H       390      M_A    0.0000
   2735 H         234.4466   67.2717   39.6282 H       390      M_A    0.0000
   2736 H         233.5233   67.7768   36.9636 H       390      M_A    0.0000
   2737 H         235.2813   68.0904   36.9553 H       390      M_A    0.0000
   2738 C         234.3732   70.3350   37.4455 C.3     391      M_A    0.0000
   2739 C         233.4748   71.5142   37.7974 C.3     391      M_A    0.0000
   2740 O         233.3170   72.3311   36.6383 O.3     391      M_A    0.0000
   2741 H         235.4208   70.6473   37.5237 H       391      M_A    0.0000
   2742 H         234.1959   70.0216   36.4104 H       391      M_A    0.0000
   2743 H         233.9642   72.0880   38.5969 H       391      M_A    0.0000
   2744 H         232.4933   71.1764   38.1561 H       391      M_A    0.0000
   2745 C         232.9308   73.6402   36.9988 C.3     392      M_A    0.0000
   2746 C         231.4534   73.7395   37.3575 C.3     392      M_A    0.0000
   2747 O         231.0500   75.1047   37.2614 O.3     392      M_A    0.0000
   2748 H         233.5304   73.9491   37.8625 H       392      M_A    0.0000
   2749 H         233.1645   74.3197   36.1714 H       392      M_A    0.0000
   2750 H         231.3293   73.3834   38.3898 H       392      M_A    0.0000
   2751 H         230.8378   73.1177   36.6937 H       392      M_A    0.0000
   2752 C         229.6508   75.2234   37.4065 C.3     393      M_A    0.0000
   2753 C         229.1807   76.6727   37.4077 C.3     393      M_A    0.0000
   2754 O         228.0880   76.7985   38.3165 O.3     393      M_A    0.0000
   2755 H         229.1736   74.6929   36.5747 H       393      M_A    0.0000
   2756 H         229.3470   74.7276   38.3354 H       393      M_A    0.0000
   2757 H         228.8526   76.9247   36.3895 H       393      M_A    0.0000
   2758 H         229.9907   77.3559   37.6962 H       393      M_A    0.0000
   2759 C         227.1526   77.7445   37.8448 C.3     394      M_A    0.0000
   2760 C         226.9985   78.9364   38.7814 C.3     394      M_A    0.0000
   2761 O         225.6597   79.4210   38.6888 O.3     394      M_A    0.0000
   2762 H         227.4894   78.1007   36.8647 H       394      M_A    0.0000
   2763 H         226.1857   77.2480   37.7042 H       394      M_A    0.0000
   2764 H         227.7027   79.7160   38.4585 H       394      M_A    0.0000
   2765 H         227.2283   78.6618   39.8196 H       394      M_A    0.0000
   2766 C         225.5141   80.6267   39.4082 C.3     395      M_A    0.0000
   2767 C         224.0580   81.0483   39.5607 C.3     395      M_A    0.0000
   2768 O         224.0006   82.4710   39.6518 O.3     395      M_A    0.0000
   2769 H         225.9526   80.4878   40.4029 H       395      M_A    0.0000
   2770 H         226.0834   81.4138   38.9006 H       395      M_A    0.0000
   2771 H         223.6682   80.5973   40.4841 H       395      M_A    0.0000
   2772 H         223.4501   80.7006   38.7147 H       395      M_A    0.0000
   2773 C         222.7392   82.8906   40.1267 C.3     396      M_A    0.0000
   2774 C         222.4543   84.3562   39.8227 C.3     396      M_A    0.0000
   2775 O         222.5438   85.1009   41.0365 O.3     396      M_A    0.0000
   2776 H         221.9704   82.2706   39.6519 H       396      M_A    0.0000
   2777 H         222.6896   82.7129   41.2070 H       396      M_A    0.0000
   2778 H         221.4369   84.4271   39.4133 H       396      M_A    0.0000
   2779 H         223.1607   84.7561   39.0830 H       396      M_A    0.0000
   2780 C         223.4908   86.1408   40.9157 C.3     397      M_A    0.0000
   2781 C         223.2248   87.2927   41.8767 C.3     397      M_A    0.0000
   2782 O         223.9209   88.4476   41.4105 O.3     397      M_A    0.0000
   2783 H         224.4841   85.7257   41.1206 H       397      M_A    0.0000
   2784 H         223.4889   86.5042   39.8817 H       397      M_A    0.0000
   2785 H         223.6011   87.0026   42.8678 H       397      M_A    0.0000
   2786 H         222.1507   87.5075   41.9564 H       397      M_A    0.0000
   2787 C         224.0483   89.4039   42.4410 C.3     398      M_A    0.0000
   2788 C         223.7393   90.8198   41.9707 C.3     398      M_A    0.0000
   2789 O         224.8105   91.6765   42.3639 O.3     398      M_A    0.0000
   2790 H         223.3552   89.1349   43.2461 H       398      M_A    0.0000
   2791 H         225.0651   89.3548   42.8470 H       398      M_A    0.0000
   2792 H         222.8053   91.1419   42.4522 H       398      M_A    0.0000
   2793 H         223.6063   90.8595   40.8813 H       398      M_A    0.0000
   2794 C         224.8108   92.8605   41.5953 C.3     399      M_A    0.0000
   2795 C         224.4974   94.0997   42.4245 C.3     399      M_A    0.0000
   2796 O         224.0523   95.1352   41.5496 O.3     399      M_A    0.0000
   2797 H         225.8017   92.9746   41.1415 H       399      M_A    0.0000
   2798 H         224.0827   92.7564   40.7828 H       399      M_A    0.0000
   2799 H         225.4203   94.4103   42.9342 H       399      M_A    0.0000
   2800 H         223.7297   93.8910   43.1816 H       399      M_A    0.0000
   2801 C         223.5179   96.2151   42.2850 C.3     400      M_A    0.0000
   2802 C         223.4391   97.4998   41.4698 C.3     400      M_A    0.0000
   2803 O         224.2657   98.4852   42.0875 O.3     400      M_A    0.0000
   2804 H         222.5105   95.9391   42.6166 H       400      M_A    0.0000
   2805 H         224.1310   96.3732   43.1796 H       400      M_A    0.0000
   2806 H         222.3929   97.8366   41.4660 H       400      M_A    0.0000
   2807 H         223.7603   97.3358   40.4325 H       400      M_A    0.0000
   2808 C         224.6328   99.4827   41.1586 C.3     401      M_A    0.0000
   2809 C         225.2544  100.7047   41.8231 C.3     401      M_A    0.0000
   2810 O         224.4930  101.8571   41.4651 O.3     401      M_A    0.0000
   2811 H         225.3557   99.0497   40.4580 H       401      M_A    0.0000
   2812 H         223.7468   99.7757   40.5838 H       401      M_A    0.0000
   2813 H         226.2844  100.8060   41.4534 H       401      M_A    0.0000
   2814 H         225.2811  100.5959   42.9156 H       401      M_A    0.0000
   2815 C         223.3188  101.4854   40.7754 C.3     402      M_A    0.0000
   2816 C         222.6327  102.6680   40.1030 C.3     402      M_A    0.0000
   2817 O         221.4669  103.0072   40.8523 O.3     402      M_A    0.0000
   2818 H         223.5886  100.7467   40.0122 H       402      M_A    0.0000
   2819 H         222.6321  101.0013   41.4790 H       402      M_A    0.0000
   2820 H         222.3493  102.3633   39.0857 H       402      M_A    0.0000
   2821 H         223.3033  103.5352   40.0372 H       402      M_A    0.0000
   2822 C         220.4449  103.4782   40.0000 C.3     403      M_A    0.0000
   2823 C         220.4736  104.9919   39.8284 C.3     403      M_A    0.0000
   2824 O         219.1358  105.4587   39.6602 O.3     403      M_A    0.0000
   2825 H         220.5702  103.0044   39.0198 H       403      M_A    0.0000
   2826 H         219.4750  103.1625   40.4007 H       403      M_A    0.0000
   2827 H         221.0665  105.2214   38.9319 H       403      M_A    0.0000
   2828 H         220.9379  105.4839   40.6935 H       403      M_A    0.0000
   2829 C         218.4460  105.4517   40.8918 C.3     404      M_A    0.0000
   2830 C         216.9989  105.9093   40.7577 C.3     404      M_A    0.0000
   2831 O         216.9615  107.3341   40.8237 O.3     404      M_A    0.0000
   2832 H         218.4632  104.4304   41.2887 H       404      M_A    0.0000
   2833 H         218.9802  106.0935   41.6015 H       404      M_A    0.0000
   2834 H         216.4276  105.4799   41.5927 H       404      M_A    0.0000
   2835 H         216.5561  105.5646   39.8136 H       404      M_A    0.0000
   2836 C         216.9870  107.8948   39.5285 C.3     405      M_A    0.0000
   2837 C         215.7466  108.7251   39.2229 C.3     405      M_A    0.0000
   2838 O         215.5476  108.7474   37.8102 O.3     405      M_A    0.0000
   2839 H         217.8739  108.5335   39.4486 H       405      M_A    0.0000
   2840 H         217.0909  107.0878   38.7943 H       405      M_A    0.0000
   2841 H         215.9204  109.7452   39.5933 H       405      M_A    0.0000
   2842 H         214.8580  108.3155   39.7216 H       405      M_A    0.0000
   2843 C         214.4330  109.5463   37.4754 C.3     406      M_A    0.0000
   2844 C         213.1297  109.0092   38.0538 C.3     406      M_A    0.0000
   2845 O         212.0959  109.9633   37.8156 O.3     406      M_A    0.0000
   2846 H         214.6067  110.5568   37.8623 H       406      M_A    0.0000
   2847 H         214.3609  109.6156   36.3841 H       406      M_A    0.0000
   2848 H         213.2695  108.8696   39.1350 H       406      M_A    0.0000
   2849 H         212.8610  108.0433   37.6055 H       406      M_A    0.0000
   2850 C         212.6062  111.2780   37.8757 C.3     407      M_A    0.0000
   2851 C         211.6532  112.2477   38.5634 C.3     407      M_A    0.0000
   2852 O         210.8388  112.8701   37.5709 O.3     407      M_A    0.0000
   2853 H         213.5524  111.2538   38.4279 H       407      M_A    0.0000
   2854 H         212.8237  111.6212   36.8578 H       407      M_A    0.0000
   2855 H         212.2558  113.0056   39.0834 H       407      M_A    0.0000
   2856 H         211.0216  111.7333   39.3000 H       407      M_A    0.0000
   2857 C         209.7239  113.5013   38.1637 C.3     408      M_A    0.0000
   2858 C         208.9474  112.5742   39.0904 C.3     408      M_A    0.0000
   2859 O         207.5930  113.0188   39.1526 O.3     408      M_A    0.0000
   2860 H         210.0828  114.3630   38.7378 H       408      M_A    0.0000
   2861 H         209.0674  113.8793   37.3717 H       408      M_A    0.0000
   2862 H         209.4060  112.6280   40.0878 H       408      M_A    0.0000
   2863 H         208.9862  111.5340   38.7402 H       408      M_A    0.0000
   2864 C         206.7556  112.0000   39.6559 C.3     409      M_A    0.0000
   2865 C         205.2783  112.2757   39.4050 C.3     409      M_A    0.0000
   2866 O         204.5503  111.9892   40.5982 O.3     409      M_A    0.0000
   2867 H         207.0315  111.0576   39.1694 H       409      M_A    0.0000
   2868 H         206.9409  111.8866   40.7301 H       409      M_A    0.0000
   2869 H         204.9423  111.6158   38.5929 H       409      M_A    0.0000
   2870 H         205.1114  113.3186   39.1037 H       409      M_A    0.0000
   2871 C         203.1937  111.7309   40.3056 C.3     410      M_A    0.0000
   2872 C         202.5872  112.7665   39.3669 C.3     410      M_A    0.0000
   2873 O         201.1788  112.8170   39.5898 O.3     410      M_A    0.0000
   2874 H         203.1257  110.7416   39.8390 H       410      M_A    0.0000
   2875 H         202.6286  111.6958   41.2439 H       410      M_A    0.0000
   2876 H         202.7924  112.4511   38.3342 H       410      M_A    0.0000
   2877 H         203.0293  113.7590   39.5268 H       410      M_A    0.0000
   2878 C         200.4904  113.0604   38.3817 C.3     411      M_A    0.0000
   2879 C         199.8396  114.4375   38.3431 C.3     411      M_A    0.0000
   2880 O         198.4222  114.2744   38.3623 O.3     411      M_A    0.0000
   2881 H         201.2069  112.9799   37.5564 H       411      M_A    0.0000
   2882 H         199.7327  112.2812   38.2418 H       411      M_A    0.0000
   2883 H         200.1475  114.9333   37.4118 H       411      M_A    0.0000
   2884 H         200.1588  115.0550   39.1934 H       411      M_A    0.0000
   2885 C         197.7932  115.2819   37.5996 C.3     412      M_A    0.0000
   2886 C         197.8497  116.6487   38.2704 C.3     412      M_A    0.0000
   2887 O         196.5172  117.1272   38.4470 O.3     412      M_A    0.0000
   2888 H         198.2950  115.3395   36.6270 H       412      M_A    0.0000
   2889 H         196.7515  114.9928   37.4199 H       412      M_A    0.0000
   2890 H         198.4081  117.3283   37.6114 H       412      M_A    0.0000
   2891 H         198.3627  116.5976   39.2402 H       412      M_A    0.0000
   2892 C         196.5221  118.4748   38.8674 C.3     413      M_A    0.0000
   2893 C         195.3961  118.7899   39.8443 C.3     413      M_A    0.0000
   2894 O         194.5835  119.8225   39.2882 O.3     413      M_A    0.0000
   2895 H         197.4837  118.6796   39.3515 H       413      M_A    0.0000
   2896 H         196.4487  119.1219   37.9860 H       413      M_A    0.0000
   2897 H         195.8483  119.1341   40.7850 H       413      M_A    0.0000
   2898 H         194.7854  117.9009   40.0513 H       413      M_A    0.0000
   2899 C         193.8493  120.4793   40.2993 C.3     414      M_A    0.0000
   2900 C         192.5002  119.8236   40.5664 C.3     414      M_A    0.0000
   2901 O         191.4867  120.8269   40.5201 O.3     414      M_A    0.0000
   2902 H         194.4435  120.4635   41.2200 H       414      M_A    0.0000
   2903 H         193.7089  121.5275   40.0119 H       414      M_A    0.0000
   2904 H         192.5343  119.3708   41.5672 H       414      M_A    0.0000
   2905 H         192.2849  119.0371   39.8307 H       414      M_A    0.0000
   2906 C         190.2090  120.2547   40.7015 C.3     415      M_A    0.0000
   2907 C         189.8157  119.3217   39.5630 C.3     415      M_A    0.0000
   2908 O         188.3949  119.1915   39.5483 O.3     415      M_A    0.0000
   2909 H         190.2162  119.6902   41.6407 H       415      M_A    0.0000
   2910 H         189.4712  121.0588   40.8022 H       415      M_A    0.0000
   2911 H         190.2801  118.3431   39.7493 H       415      M_A    0.0000
   2912 H         190.1688  119.7009   38.5947 H       415      M_A    0.0000
   2913 C         187.8558  119.4573   40.8255 C.3     416      M_A    0.0000
   2914 C         186.4509  118.8939   40.9995 C.3     416      M_A    0.0000
   2915 O         185.5060  119.9132   40.6774 O.3     416      M_A    0.0000
   2916 H         188.5165  119.0098   41.5766 H       416      M_A    0.0000
   2917 H         187.8506  120.5408   40.9901 H       416      M_A    0.0000
   2918 H         186.3333  118.5917   42.0497 H       416      M_A    0.0000
   2919 H         186.2899  118.0158   40.3599 H       416      M_A    0.0000
   2920 C         184.2010  119.3798   40.6057 C.3     417      M_A    0.0000
   2921 C         183.4525  119.8232   39.3548 C.3     417      M_A    0.0000
   2922 O         182.7481  121.0292   39.6465 O.3     417      M_A    0.0000
   2923 H         184.2767  118.2866   40.6089 H       417      M_A    0.0000
   2924 H         183.6460  119.6776   41.5026 H       417      M_A    0.0000
   2925 H         182.7418  119.0297   39.0845 H       417      M_A    0.0000
   2926 H         184.1395  119.9830   38.5130 H       417      M_A    0.0000
   2927 C         183.3782  122.1355   39.0368 C.3     418      M_A    0.0000
   2928 C         183.2744  123.4053   39.8724 C.3     418      M_A    0.0000
   2929 O         183.0893  124.5160   38.9961 O.3     418      M_A    0.0000
   2930 H         184.4358  121.8895   38.8893 H       418      M_A    0.0000
   2931 H         182.9331  122.2971   38.0484 H       418      M_A    0.0000
   2932 H         184.2130  123.5217   40.4324 H       418      M_A    0.0000
   2933 H         182.4425  123.3472   40.5871 H       418      M_A    0.0000
   2934 C         183.0019  125.7201   39.7275 C.3     419      M_A    0.0000
   2935 C         181.7912  125.7599   40.6518 C.3     419      M_A    0.0000
   2936 O         181.6866  127.0677   41.2127 O.3     419      M_A    0.0000
   2937 H         183.9134  125.8243   40.3269 H       419      M_A    0.0000
   2938 H         182.9677  126.5605   39.0249 H       419      M_A    0.0000
   2939 H         181.9482  125.0209   41.4499 H       419      M_A    0.0000
   2940 H         180.8682  125.5066   40.1133 H       419      M_A    0.0000
   2941 C         182.9667  127.6064   41.4656 C.3     420      M_A    0.0000
   2942 C         182.9279  128.7880   42.4266 C.3     420      M_A    0.0000
   2943 O         182.7914  129.9895   41.6693 O.3     420      M_A    0.0000
   2944 H         183.5927  126.8161   41.8950 H       420      M_A    0.0000
   2945 H         183.4188  127.9089   40.5141 H       420      M_A    0.0000
   2946 H         183.8738  128.8027   42.9861 H       420      M_A    0.0000
   2947 H         182.0979  128.6966   43.1400 H       420      M_A    0.0000
   2948 C         182.3264  131.0438   42.4848 C.3     421      M_A    0.0000
   2949 C         180.8736  130.8636   42.9069 C.3     421      M_A    0.0000
   2950 O         180.2442  132.1438   42.9385 O.3     421      M_A    0.0000
   2951 H         182.9565  131.0882   43.3803 H       421      M_A    0.0000
   2952 H         182.4478  131.9899   41.9452 H       421      M_A    0.0000
   2953 H         180.8640  130.4160   43.9106 H       421      M_A    0.0000
   2954 H         180.3366  130.1973   42.2186 H       421      M_A    0.0000
   2955 C         178.8536  132.0219   42.7288 C.3     422      M_A    0.0000
   2956 C         178.0329  132.6568   43.8445 C.3     422      M_A    0.0000
   2957 O         176.7181  132.1032   43.8172 O.3     422      M_A    0.0000
   2958 H         178.6058  132.5104   41.7797 H       422      M_A    0.0000
   2959 H         178.6009  130.9599   42.6323 H       422      M_A    0.0000
   2960 H         177.9880  133.7393   43.6600 H       422      M_A    0.0000
   2961 H         178.4930  132.4854   44.8269 H       422      M_A    0.0000
   2962 C         175.9978  132.4698   44.9746 C.3     423      M_A    0.0000
   2963 C         174.6845  131.7102   45.1149 C.3     423      M_A    0.0000
   2964 O         173.6050  132.6283   44.9489 O.3     423      M_A    0.0000
   2965 H         176.6257  132.2639   45.8489 H       423      M_A    0.0000
   2966 H         175.8083  133.5489   44.9478 H       423      M_A    0.0000
   2967 H         174.6517  131.2707   46.1217 H       423      M_A    0.0000
   2968 H         174.6086  130.9023   44.3750 H       423      M_A    0.0000
   2969 C         172.3664  131.9514   44.9683 C.3     424      M_A    0.0000
   2970 C         171.2511  132.7470   44.3016 C.3     424      M_A    0.0000
   2971 O         170.3380  133.1853   45.3065 O.3     424      M_A    0.0000
   2972 H         172.4887  130.9973   44.4432 H       424      M_A    0.0000
   2973 H         172.1005  131.7275   46.0077 H       424      M_A    0.0000
   2974 H         170.7375  132.0835   43.5917 H       424      M_A    0.0000
   2975 H         171.6490  133.6107   43.7522 H       424      M_A    0.0000
   2976 C         169.0147  133.1814   44.8148 C.3     425      M_A    0.0000
   2977 C         168.6724  134.4467   44.0382 C.3     425      M_A    0.0000
   2978 O         167.8755  135.2911   44.8675 O.3     425      M_A    0.0000
   2979 H         168.8962  132.3138   44.1559 H       425      M_A    0.0000
   2980 H         168.3238  133.0569   45.6564 H       425      M_A    0.0000
   2981 H         168.1036  134.1539   43.1445 H       425      M_A    0.0000
   2982 H         169.5791  134.9787   43.7203 H       425      M_A    0.0000
   2983 C         167.0189  136.0952   44.0849 C.3     426      M_A    0.0000
   2984 C         167.4835  137.5440   44.0046 C.3     426      M_A    0.0000
   2985 O         166.3365  138.3926   43.9986 O.3     426      M_A    0.0000
   2986 H         166.9825  135.6743   43.0737 H       426      M_A    0.0000
   2987 H         166.0068  136.0463   44.5024 H       426      M_A    0.0000
   2988 H         168.0474  137.6690   43.0695 H       426      M_A    0.0000
   2989 H         168.1379  137.8018   44.8481 H       426      M_A    0.0000
   2990 C         166.6836  139.6985   43.5902 C.3     427      M_A    0.0000
   2991 C         165.7472  140.7595   44.1548 C.3     427      M_A    0.0000
   2992 O         165.3522  141.6311   43.0964 O.3     427      M_A    0.0000
   2993 H         167.7047  139.9044   43.9307 H       427      M_A    0.0000
   2994 H         166.6834  139.7397   42.4950 H       427      M_A    0.0000
   2995 H         166.2962  141.3247   44.9210 H       427      M_A    0.0000
   2996 H         164.8614  140.3055   44.6187 H       427      M_A    0.0000
   2997 C         164.3552  142.5292   43.5349 C.3     428      M_A    0.0000
   2998 C         164.8015  143.9842   43.4623 C.3     428      M_A    0.0000
   2999 O         163.8451  144.7908   44.1482 O.3     428      M_A    0.0000
   3000 H         163.4701  142.3942   42.9030 H       428      M_A    0.0000
   3001 H         164.0729  142.2722   44.5622 H       428      M_A    0.0000
   3002 H         164.8457  144.2739   42.4030 H       428      M_A    0.0000
   3003 H         165.7964  144.1203   43.9068 H       428      M_A    0.0000
   3004 C         162.5326  144.4566   43.7502 C.3     429      M_A    0.0000
   3005 C         161.5887  145.6523   43.7735 C.3     429      M_A    0.0000
   3006 O         160.8209  145.6058   44.9753 O.3     429      M_A    0.0000
   3007 H         162.5751  144.0539   42.7318 H       429      M_A    0.0000
   3008 H         162.1538  143.6642   44.4057 H       429      M_A    0.0000
   3009 H         160.9245  145.5785   42.9010 H       429      M_A    0.0000
   3010 H         162.1414  146.5996   43.7166 H       429      M_A    0.0000
   3011 C         159.6220  146.3367   44.8305 C.3     430      M_A    0.0000
   3012 C         159.8631  147.8272   44.6266 C.3     430      M_A    0.0000
   3013 O         158.7277  148.5446   45.1085 O.3     430      M_A    0.0000
   3014 H         159.0808  145.9398   43.9642 H       430      M_A    0.0000
   3015 H         158.9976  146.1734   45.7162 H       430      M_A    0.0000
   3016 H         159.9911  148.0069   43.5499 H       430      M_A    0.0000
   3017 H         160.7690  148.1613   45.1499 H       430      M_A    0.0000
   3018 C         157.9958  149.0994   44.0365 C.3     431      M_A    0.0000
   3019 C         156.8811  150.0272   44.5036 C.3     431      M_A    0.0000
   3020 O         155.6452  149.3155   44.4604 O.3     431      M_A    0.0000
   3021 H         158.6895  149.6639   43.4033 H       431      M_A    0.0000
   3022 H         157.5802  148.2855   43.4315 H       431      M_A    0.0000
   3023 H         156.8437  150.8858   43.8185 H       431      M_A    0.0000
   3024 H         157.0676  150.3960   45.5211 H       431      M_A    0.0000
   3025 C         155.2419  149.0958   43.1256 C.3     432      M_A    0.0000
   3026 C         153.7544  148.7891   43.0037 C.3     432      M_A    0.0000
   3027 O         153.5765  147.3735   43.0170 O.3     432      M_A    0.0000
   3028 H         155.4703  149.9970   42.5455 H       432      M_A    0.0000
   3029 H         155.8322  148.2725   42.7074 H       432      M_A    0.0000
   3030 H         153.3989  149.2030   42.0497 H       432      M_A    0.0000
   3031 H         153.1830  149.2478   43.8218 H       432      M_A    0.0000
   3032 C         152.6852  146.9918   44.0430 C.3     433      M_A    0.0000
   3033 C         151.2999  146.6380   43.5167 C.3     433      M_A    0.0000
   3034 O         150.3305  147.4081   44.2261 O.3     433      M_A    0.0000
   3035 H         153.1065  146.1202   44.5565 H       433      M_A    0.0000
   3036 H         152.6147  147.8062   44.7730 H       433      M_A    0.0000
   3037 H         151.1316  145.5667   43.6952 H       433      M_A    0.0000
   3038 H         151.2195  146.8326   42.4389 H       433      M_A    0.0000
   3039 C         150.9558  148.2496   45.1714 C.3     434      M_A    0.0000
   3040 C         150.1024  149.4571   45.5388 C.3     434      M_A    0.0000
   3041 O         150.2819  150.4640   44.5439 O.3     434      M_A    0.0000
   3042 H         151.1535  147.6626   46.0755 H       434      M_A    0.0000
   3043 H         151.9213  148.5781   44.7703 H       434      M_A    0.0000
   3044 H         150.4428  149.8297   46.5152 H       434      M_A    0.0000
   3045 H         149.0403  149.1883   45.6148 H       434      M_A    0.0000
   3046 C         149.0824  151.1778   44.3338 C.3     435      M_A    0.0000
   3047 C         148.0113  150.3387   43.6482 C.3     435      M_A    0.0000
   3048 O         146.8384  151.1355   43.4886 O.3     435      M_A    0.0000
   3049 H         148.7068  151.5116   45.3077 H       435      M_A    0.0000
   3050 H         149.3007  152.0710   43.7375 H       435      M_A    0.0000
   3051 H         147.7930  149.4745   44.2912 H       435      M_A    0.0000
   3052 H         148.3539  149.9734   42.6708 H       435      M_A    0.0000
   3053 C         146.2156  151.3626   44.7348 C.3     436      M_A    0.0000
   3054 C         144.9931  150.4793   44.9508 C.3     436      M_A    0.0000
   3055 O         143.8201  151.2798   44.8131 O.3     436      M_A    0.0000
   3056 H         146.9470  151.1611   45.5256 H       436      M_A    0.0000
   3057 H         145.9340  152.4195   44.8035 H       436      M_A    0.0000
   3058 H         145.0477  150.0656   45.9675 H       436      M_A    0.0000
   3059 H         144.9680  149.6484   44.2330 H       436      M_A    0.0000
   3060 C         142.6774  150.4673   44.6490 C.3     437      M_A    0.0000
   3061 C         141.4661  151.2490   44.1559 C.3     437      M_A    0.0000
   3062 O         140.5758  151.4526   45.2521 O.3     437      M_A    0.0000
   3063 H         142.9164  149.6820   43.9230 H       437      M_A    0.0000
   3064 H         142.4486  149.9797   45.6034 H       437      M_A    0.0000
   3065 H         140.9711  150.6531   43.3763 H       437      M_A    0.0000
   3066 H         141.7614  152.2157   43.7264 H       437      M_A    0.0000
   3067 C         139.2813  151.7751   44.7907 C.3     438      M_A    0.0000
   3068 C         139.1072  153.2647   44.5217 C.3     438      M_A    0.0000
   3069 O         138.1699  153.7925   45.4590 O.3     438      M_A    0.0000
   3070 H         139.0995  151.2202   43.8634 H       438      M_A    0.0000
   3071 H         138.5465  151.4371   45.5303 H       438      M_A    0.0000
   3072 H         138.7221  153.3829   43.4991 H       438      M_A    0.0000
   3073 H         140.0626  153.8002   44.6027 H       438      M_A    0.0000
   3074 C         137.7864  155.1022   45.0982 C.3     439      M_A    0.0000
   3075 C         138.7559  156.1606   45.6095 C.3     439      M_A    0.0000
   3076 O         138.1665  157.4472   45.4273 O.3     439      M_A    0.0000
   3077 H         137.7405  155.1572   44.0047 H       439      M_A    0.0000
   3078 H         136.7789  155.2960   45.4836 H       439      M_A    0.0000
   3079 H         139.6819  156.0856   45.0223 H       439      M_A    0.0000
   3080 H         138.9968  156.0038   46.6694 H       439      M_A    0.0000
   3081 C         137.9138  157.6916   44.0601 C.3     440      M_A    0.0000
   3082 C         137.8661  159.1777   43.7276 C.3     440      M_A    0.0000
   3083 O         136.5284  159.6427   43.9006 O.3     440      M_A    0.0000
   3084 H         138.7102  157.2190   43.4742 H       440      M_A    0.0000
   3085 H         136.9678  157.2126   43.7829 H       440      M_A    0.0000
   3086 H         138.1738  159.3018   42.6798 H       440      M_A    0.0000
   3087 H         138.5499  159.7528   44.3662 H       440      M_A    0.0000
   3088 C         136.5152  161.0165   44.2246 C.3     441      M_A    0.0000
   3089 C         135.9128  161.2912   45.5969 C.3     441      M_A    0.0000
   3090 O         135.0033  162.3850   45.4867 O.3     441      M_A    0.0000
   3091 H         137.5478  161.3830   44.2071 H       441      M_A    0.0000
   3092 H         135.9569  161.5579   43.4525 H       441      M_A    0.0000
   3093 H         136.7318  161.5519   46.2819 H       441      M_A    0.0000
   3094 H         135.3925  160.4073   45.9897 H       441      M_A    0.0000
   3095 C         133.8941  162.2001   46.3402 C.3     442      M_A    0.0000
   3096 C         132.8313  163.2775   46.1647 C.3     442      M_A    0.0000
   3097 O         132.5112  163.8176   47.4460 O.3     442      M_A    0.0000
   3098 H         133.4518  161.2218   46.1207 H       442      M_A    0.0000
   3099 H         134.2444  162.1815   47.3785 H       442      M_A    0.0000
   3100 H         131.9412  162.8084   45.7224 H       442      M_A    0.0000
   3101 H         133.1780  164.0764   45.4956 H       442      M_A    0.0000
   3102 C         131.6521  164.9303   47.3185 C.3     443      M_A    0.0000
   3103 C         132.3291  166.1227   46.6542 C.3     443      M_A    0.0000
   3104 O         131.3409  167.1138   46.3766 O.3     443      M_A    0.0000
   3105 H         130.7872  164.6288   46.7169 H       443      M_A    0.0000
   3106 H         131.2847  165.2108   48.3122 H       443      M_A    0.0000
   3107 H         132.7859  165.7756   45.7167 H       443      M_A    0.0000
   3108 H         133.1154  166.5443   47.2945 H       443      M_A    0.0000
   3109 C         130.2961  166.5725   45.5968 C.3     444      M_A    0.0000
   3110 C         129.5290  167.6366   44.8218 C.3     444      M_A    0.0000
   3111 O         128.3128  167.9183   45.5128 O.3     444      M_A    0.0000
   3112 H         130.7311  165.8580   44.8889 H       444      M_A    0.0000
   3113 H         129.6144  166.0185   46.2522 H       444      M_A    0.0000
   3114 H         129.3085  167.2366   43.8222 H       444      M_A    0.0000
   3115 H         130.1204  168.5554   44.7113 H       444      M_A    0.0000
   3116 C         127.4775  168.7490   44.7351 C.3     445      M_A    0.0000
   3117 C         126.7896  169.8291   45.5606 C.3     445      M_A    0.0000
   3118 O         125.4334  169.4436   45.7794 O.3     445      M_A    0.0000
   3119 H         128.0913  169.2256   43.9624 H       445      M_A    0.0000
   3120 H         126.7299  168.1272   44.2297 H       445      M_A    0.0000
   3121 H         126.8253  170.7678   44.9901 H       445      M_A    0.0000
   3122 H         127.2972  169.9818   46.5225 H       445      M_A    0.0000
   3123 C         124.6796  170.5288   46.2761 C.3     446      M_A    0.0000
   3124 C         125.3330  171.1966   47.4796 C.3     446      M_A    0.0000
   3125 O         124.3097  171.7330   48.3168 O.3     446      M_A    0.0000
   3126 H         124.5701  171.2665   45.4731 H       446      M_A    0.0000
   3127 H         123.6771  170.1733   46.5402 H       446      M_A    0.0000
   3128 H         125.9785  172.0060   47.1107 H       446      M_A    0.0000
   3129 H         125.9487  170.4855   48.0465 H       446      M_A    0.0000
   3130 C         123.6638  170.7051   49.0371 C.3     447      M_A    0.0000
   3131 C         122.5436  171.2264   49.9287 C.3     447      M_A    0.0000
   3132 O         123.0523  171.3949   51.2511 O.3     447      M_A    0.0000
   3133 H         123.2460  169.9922   48.3172 H       447      M_A    0.0000
   3134 H         124.4081  170.1721   49.6395 H       447      M_A    0.0000
   3135 H         121.7353  170.4817   49.9297 H       447      M_A    0.0000
   3136 H         122.1449  172.1789   49.5547 H       447      M_A    0.0000
   3137 C         122.0017  171.6311   52.1638 C.3     448      M_A    0.0000
   3138 C         122.1524  172.9543   52.9039 C.3     448      M_A    0.0000
   3139 O         121.3987  172.8903   54.1138 O.3     448      M_A    0.0000
   3140 H         121.0581  171.6381   51.6065 H       448      M_A    0.0000
   3141 H         121.9596  170.8017   52.8790 H       448      M_A    0.0000
   3142 H         121.7585  173.7519   52.2584 H       448      M_A    0.0000
   3143 H         123.2057  173.1700   53.1278 H       448      M_A    0.0000
   3144 C         120.8869  171.5903   54.3151 C.3     449      M_A    0.0000
   3145 C         119.4867  171.5962   54.9160 C.3     449      M_A    0.0000
   3146 O         119.5086  170.8540   56.1344 O.3     449      M_A    0.0000
   3147 H         120.8584  171.0790   53.3462 H       449      M_A    0.0000
   3148 H         121.5735  171.0351   54.9643 H       449      M_A    0.0000
   3149 H         118.8063  171.1179   54.1976 H       449      M_A    0.0000
   3150 H         119.1368  172.6199   55.1052 H       449      M_A    0.0000
   3151 C         118.3761  171.1536   56.9220 C.3     450      M_A    0.0000
   3152 C         117.6986  169.9064   57.4760 C.3     450      M_A    0.0000
   3153 O         116.2967  170.1529   57.5751 O.3     450      M_A    0.0000
   3154 H         118.6966  171.7874   57.7565 H       450      M_A    0.0000
   3155 H         117.6668  171.7315   56.3185 H       450      M_A    0.0000
   3156 H         118.1158  169.7071   58.4731 H       450      M_A    0.0000
   3157 H         117.8827  169.0332   56.8358 H       450      M_A    0.0000
   3158 C         115.7632  169.5442   58.7316 C.3     451      M_A    0.0000
   3159 C         114.6934  168.5081   58.4102 C.3     451      M_A    0.0000
   3160 O         113.7646  168.4587   59.4923 O.3     451      M_A    0.0000
   3161 H         116.5827  169.0568   59.2718 H       451      M_A    0.0000
   3162 H         115.3508  170.3222   59.3841 H       451      M_A    0.0000
   3163 H         115.1876  167.5331   58.2954 H       451      M_A    0.0000
   3164 H         114.1698  168.7501   57.4757 H       451      M_A    0.0000
   3165 C         114.3270  167.7936   60.6031 C.3     452      M_A    0.0000
   3166 C         113.5923  168.0960   61.9032 C.3     452      M_A    0.0000
   3167 O         113.9787  169.3927   62.3562 O.3     452      M_A    0.0000
   3168 H         114.2886  166.7151   60.4128 H       452      M_A    0.0000
   3169 H         115.3816  168.0787   60.6909 H       452      M_A    0.0000
   3170 H         113.8843  167.3377   62.6432 H       452      M_A    0.0000
   3171 H         112.5034  168.0542   61.7665 H       452      M_A    0.0000
   3172 C         113.3458  169.7036   63.5791 C.3     453      M_A    0.0000
   3173 C         111.8286  169.7689   63.4558 C.3     453      M_A    0.0000
   3174 O         111.3019  170.4047   64.6195 O.3     453      M_A    0.0000
   3175 H         113.6126  168.9314   64.3095 H       453      M_A    0.0000
   3176 H         113.7357  170.6592   63.9477 H       453      M_A    0.0000
   3177 H         111.4483  168.7401   63.3859 H       453      M_A    0.0000
   3178 H         111.5236  170.3194   62.5558 H       453      M_A    0.0000
   3179 C         112.3344  170.7094   65.5326 C.3     454      M_A    0.0000
   3180 C         111.8092  171.0519   66.9212 C.3     454      M_A    0.0000
   3181 O         112.8384  171.7223   67.6473 O.3     454      M_A    0.0000
   3182 H         112.9964  169.8391   65.6049 H       454      M_A    0.0000
   3183 H         112.9240  171.5439   65.1361 H       454      M_A    0.0000
   3184 H         111.5450  170.1122   67.4263 H       454      M_A    0.0000
   3185 H         110.9141  171.6858   66.8654 H       454      M_A    0.0000
   3186 C         114.1109  171.3790   67.1418 C.3     455      M_A    0.0000
   3187 C         115.2365  171.6957   68.1185 C.3     455      M_A    0.0000
   3188 O         115.6283  173.0560   67.9396 O.3     455      M_A    0.0000
   3189 H         114.1159  170.3045   66.9261 H       455      M_A    0.0000
   3190 H         114.2719  171.9089   66.1961 H       455      M_A    0.0000
   3191 H         116.0808  171.0294   67.8922 H       455      M_A    0.0000
   3192 H         114.9237  171.5279   69.1577 H       455      M_A    0.0000
   3193 C         116.3089  173.2226   66.7141 C.3     456      M_A    0.0000
   3194 C         117.4781  174.1938   66.8183 C.3     456      M_A    0.0000
   3195 O         117.0189  175.5010   66.4775 O.3     456      M_A    0.0000
   3196 H         116.6840  172.2438   66.3943 H       456      M_A    0.0000
   3197 H         115.5967  173.5696   65.9569 H       456      M_A    0.0000
   3198 H         118.2526  173.8714   66.1082 H       456      M_A    0.0000
   3199 H         117.9066  174.1974   67.8295 H       456      M_A    0.0000
   3200 C         115.9176  175.8685   67.2804 C.3     457      M_A    0.0000
   3201 C         115.8772  177.3629   67.5745 C.3     457      M_A    0.0000
   3202 O         114.7207  177.6432   68.3618 O.3     457      M_A    0.0000
   3203 H         114.9994  175.5821   66.7552 H       457      M_A    0.0000
   3204 H         115.9561  175.3008   68.2170 H       457      M_A    0.0000
   3205 H         115.8166  177.8968   66.6157 H       457      M_A    0.0000
   3206 H         116.7815  177.6911   68.1042 H       457      M_A    0.0000
   3207 C         114.9450  178.7567   69.2000 C.3     458      M_A    0.0000
   3208 C         113.9473  178.8383   70.3487 C.3     458      M_A    0.0000
   3209 O         112.6285  178.8888   69.8066 O.3     458      M_A    0.0000
   3210 H         115.9580  178.6784   69.6105 H       458      M_A    0.0000
   3211 H         114.9003  179.6702   68.5961 H       458      M_A    0.0000
   3212 H         114.1554  179.7568   70.9153 H       458      M_A    0.0000
   3213 H         114.0437  177.9779   71.0243 H       458      M_A    0.0000
   3214 C         112.1603  180.2195   69.7552 C.3     459      M_A    0.0000
   3215 C         111.1741  180.5393   70.8717 C.3     459      M_A    0.0000
   3216 O         109.8511  180.4992   70.3389 O.3     459      M_A    0.0000
   3217 H         113.0232  180.8901   69.8369 H       459      M_A    0.0000
   3218 H         111.6943  180.3944   68.7788 H       459      M_A    0.0000
   3219 H         111.3979  181.5486   71.2446 H       459      M_A    0.0000
   3220 H         111.2665  179.8278   71.7032 H       459      M_A    0.0000
   3221 C         109.1592  181.6948   70.6298 C.3     460      M_A    0.0000
   3222 C         108.7053  182.4314   69.3756 C.3     460      M_A    0.0000
   3223 O         108.7399  183.8347   69.6314 O.3     460      M_A    0.0000
   3224 H         108.2809  181.4442   71.2353 H       460      M_A    0.0000
   3225 H         109.8061  182.3414   71.2335 H       460      M_A    0.0000
   3226 H         107.6768  182.1165   69.1497 H       460      M_A    0.0000
   3227 H         109.3448  182.1897   68.5161 H       460      M_A    0.0000
   3228 C         110.0688  184.3107   69.6256 C.3     461      M_A    0.0000
   3229 C         110.1551  185.8100   69.3682 C.3     461      M_A    0.0000
   3230 O         111.3332  186.0768   68.6089 O.3     461      M_A    0.0000
   3231 H         110.5170  184.0886   70.6007 H       461      M_A    0.0000
   3232 H         110.6383  183.7642   68.8654 H       461      M_A    0.0000
   3233 H         110.2120  186.3194   70.3404 H       461      M_A    0.0000
   3234 H         109.2700  186.1752   68.8302 H       461      M_A    0.0000
   3235 C         111.8166  187.3757   68.8769 C.3     462      M_A    0.0000
   3236 C         113.3334  187.4722   68.7700 C.3     462      M_A    0.0000
   3237 O         113.7668  188.6453   69.4568 O.3     462      M_A    0.0000
   3238 H         111.3624  188.0660   68.1572 H       462      M_A    0.0000
   3239 H         111.4893  187.6765   69.8787 H       462      M_A    0.0000
   3240 H         113.5955  187.5427   67.7049 H       462      M_A    0.0000
   3241 H         113.8218  186.5852   69.1952 H       462      M_A    0.0000
   3242 C         113.1151  189.7903   68.9499 C.3     463      M_A    0.0000
   3243 C         113.9291  191.0638   69.1426 C.3     463      M_A    0.0000
   3244 O         113.3190  191.8460   70.1681 O.3     463      M_A    0.0000
   3245 H         112.9370  189.6379   67.8794 H       463      M_A    0.0000
   3246 H         112.1392  189.8889   69.4388 H       463      M_A    0.0000
   3247 H         113.9227  191.6184   68.1938 H       463      M_A    0.0000
   3248 H         114.9695  190.8368   69.4112 H       463      M_A    0.0000
   3249 C         114.0720  193.0130   70.4208 C.3     464      M_A    0.0000
   3250 C         113.7112  193.6697   71.7473 C.3     464      M_A    0.0000
   3251 O         113.3496  195.0280   71.5021 O.3     464      M_A    0.0000
   3252 H         115.1333  192.7403   70.4333 H       464      M_A    0.0000
   3253 H         113.9196  193.7191   69.5966 H       464      M_A    0.0000
   3254 H         114.5954  193.6287   72.3988 H       464      M_A    0.0000
   3255 H         112.8839  193.1437   72.2424 H       464      M_A    0.0000
   3256 C         112.7737  195.6072   72.6534 C.3     465      M_A    0.0000
   3257 C         111.4173  196.2433   72.3757 C.3     465      M_A    0.0000
   3258 O         111.3695  197.5172   73.0166 O.3     465      M_A    0.0000
   3259 H         112.6531  194.8222   73.4085 H       465      M_A    0.0000
   3260 H         113.4650  196.3549   73.0582 H       465      M_A    0.0000
   3261 H         110.6414  195.5850   72.7912 H       465      M_A    0.0000
   3262 H         111.2422  196.3577   71.2976 H       465      M_A    0.0000
   3263 C         110.6348  198.4394   72.2405 C.3     466      M_A    0.0000
   3264 C         110.4155  199.7666   72.9559 C.3     466      M_A    0.0000
   3265 O         109.2052  200.3504   72.4761 O.3     466      M_A    0.0000
   3266 H         111.1856  198.6207   71.3106 H       466      M_A    0.0000
   3267 H         109.6710  197.9908   71.9742 H       466      M_A    0.0000
   3268 H         111.2661  200.4227   72.7239 H       466      M_A    0.0000
   3269 H         110.3619  199.6304   74.0443 H       466      M_A    0.0000
   3270 C         109.1270  201.7111   72.8439 C.3     467      M_A    0.0000
   3271 C         107.7503  202.1003   73.3679 C.3     467      M_A    0.0000
   3272 O         107.0114  202.7049   72.3075 O.3     467      M_A    0.0000
   3273 H         109.8732  201.8988   73.6242 H       467      M_A    0.0000
   3274 H         109.3892  202.3286   71.9773 H       467      M_A    0.0000
   3275 H         107.8890  202.8203   74.1865 H       467      M_A    0.0000
   3276 H         107.2077  201.2272   73.7544 H       467      M_A    0.0000
   3277 C         105.8835  201.9235   71.9760 C.3     468      M_A    0.0000
   3278 C         104.5746  202.5585   72.4288 C.3     468      M_A    0.0000
   3279 O         103.5673  201.5490   72.4725 O.3     468      M_A    0.0000
   3280 H         105.8621  201.7965   70.8877 H       468      M_A    0.0000
   3281 H         105.9957  200.9300   72.4248 H       468      M_A    0.0000
   3282 H         104.3001  203.3309   71.6966 H       468      M_A    0.0000
   3283 H         104.6786  203.0293   73.4155 H       468      M_A    0.0000
   3284 C         102.2813  202.1287   72.5242 C.3     469      M_A    0.0000
   3285 C         101.1673  201.0892   72.5223 C.3     469      M_A    0.0000
   3286 O         100.2644  201.3881   71.4588 O.3     469      M_A    0.0000
   3287 H         102.2112  202.7268   73.4398 H       469      M_A    0.0000
   3288 H         102.1639  202.8087   71.6728 H       469      M_A    0.0000
   3289 H         100.6439  201.1498   73.4869 H       469      M_A    0.0000
   3290 H         101.5678  200.0737   72.4017 H       469      M_A    0.0000
   3291 C          99.3850  202.4288   71.8279 C.3     470      M_A    0.0000
   3292 C          99.9717  203.8119   71.5744 C.3     470      M_A    0.0000
   3293 O          99.0678  204.7924   72.0817 O.3     470      M_A    0.0000
   3294 H          98.4618  202.3198   71.2477 H       470      M_A    0.0000
   3295 H          99.1274  202.3169   72.8872 H       470      M_A    0.0000
   3296 H         100.0905  203.9373   70.4890 H       470      M_A    0.0000
   3297 H         100.9544  203.9234   72.0518 H       470      M_A    0.0000
   3298 C          97.7891  204.6394   71.5036 C.3     471      M_A    0.0000
   3299 C          96.9691  205.9230   71.5421 C.3     471      M_A    0.0000
   3300 O          96.0111  205.8225   72.5947 O.3     471      M_A    0.0000
   3301 H          97.9191  204.3288   70.4607 H       471      M_A    0.0000
   3302 H          97.2571  203.8363   72.0261 H       471      M_A    0.0000
   3303 H          96.4554  206.0275   70.5761 H       471      M_A    0.0000
   3304 H          97.6087  206.8019   71.6982 H       471      M_A    0.0000
   3305 C          95.6954  207.0997   73.1062 C.3     472      M_A    0.0000
   3306 C          94.2881  207.5504   72.7349 C.3     472      M_A    0.0000
   3307 O          94.2118  208.9689   72.8684 O.3     472      M_A    0.0000
   3308 H          95.7832  207.0633   74.1980 H       472      M_A    0.0000
   3309 H          96.4324  207.8220   72.7371 H       472      M_A    0.0000
   3310 H          93.5831  207.0699   73.4278 H       472      M_A    0.0000
   3311 H          94.0309  207.2546   71.7090 H       472      M_A    0.0000
   3312 C          94.8710  209.6076   71.7960 C.3     473      M_A    0.0000
   3313 C          95.5041  210.9331   72.2008 C.3     473      M_A    0.0000
   3314 O          94.5334  211.9682   72.0517 O.3     473      M_A    0.0000
   3315 H          95.6533  208.9357   71.4252 H       473      M_A    0.0000
   3316 H          94.1543  209.7651   70.9819 H       473      M_A    0.0000
   3317 H          96.3574  211.1202   71.5338 H       473      M_A    0.0000
   3318 H          95.8665  210.9035   73.2371 H       473      M_A    0.0000
   3319 C          93.5411  211.8698   73.0508 C.3     474      M_A    0.0000
   3320 C          93.1705  213.2223   73.6465 C.3     474      M_A    0.0000
   3321 O          93.5338  213.2296   75.0263 O.3     474      M_A    0.0000
   3322 H          92.6480  211.4186   72.6040 H       474      M_A    0.0000
   3323 H          93.8960  211.1953   73.8384 H       474      M_A    0.0000
   3324 H          92.0840  213.3529   73.5441 H       474      M_A    0.0000
   3325 H          93.6754  214.0433   73.1202 H       474      M_A    0.0000
   3326 C          92.9820  214.3512   75.6821 C.3     475      M_A    0.0000
   3327 C          93.4658  214.4883   77.1203 C.3     475      M_A    0.0000
   3328 O          92.5700  215.3470   77.8245 O.3     475      M_A    0.0000
   3329 H          93.2650  215.2496   75.1221 H       475      M_A    0.0000
   3330 H          91.8890  214.2744   75.6576 H       475      M_A    0.0000
   3331 H          94.4716  214.9308   77.1001 H       475      M_A    0.0000
   3332 H          93.5205  213.5113   77.6190 H       475      M_A    0.0000
   3333 C          91.3363  215.4465   77.1457 C.3     476      M_A    0.0000
   3334 C          90.5730  216.7175   77.4967 C.3     476      M_A    0.0000
   3335 O          89.6070  216.4087   78.5003 O.3     476      M_A    0.0000
   3336 H          91.5358  215.4347   76.0682 H       476      M_A    0.0000
   3337 H          90.7294  214.5649   77.3814 H       476      M_A    0.0000
   3338 H          90.0685  217.0733   76.5874 H       476      M_A    0.0000
   3339 H          91.2497  217.5046   77.8553 H       476      M_A    0.0000
   3340 C          89.0853  217.5895   79.0715 C.3     477      M_A    0.0000
   3341 C          90.1090  218.3344   79.9193 C.3     477      M_A    0.0000
   3342 O          89.4615  219.4345   80.5569 O.3     477      M_A    0.0000
   3343 H          88.7490  218.2439   78.2594 H       477      M_A    0.0000
   3344 H          88.2086  217.3335   79.6773 H       477      M_A    0.0000
   3345 H          90.9013  218.7011   79.2517 H       477      M_A    0.0000
   3346 H          90.5601  217.6752   80.6730 H       477      M_A    0.0000
   3347 C          88.3067  219.8174   79.8410 C.3     478      M_A    0.0000
   3348 C          87.7785  221.1825   80.2640 C.3     478      M_A    0.0000
   3349 O          86.3578  221.1843   80.1322 O.3     478      M_A    0.0000
   3350 H          88.5578  219.8455   78.7746 H       478      M_A    0.0000
   3351 H          87.5331  219.0539   79.9807 H       478      M_A    0.0000
   3352 H          88.2180  221.9385   79.5982 H       478      M_A    0.0000
   3353 H          88.0607  221.4176   81.2990 H       478      M_A    0.0000
   3354 C          85.8703  222.5025   80.0000 C.3     479      M_A    0.0000
   3355 C          85.0360  222.9435   81.1962 C.3     479      M_A    0.0000
   3356 O          84.1418  223.9729   80.7758 O.3     479      M_A    0.0000
   3357 H          86.7279  223.1763   79.8937 H       479      M_A    0.0000
   3358 H          85.2773  222.5710   79.0808 H       479      M_A    0.0000
   3359 H          85.7204  223.3315   81.9636 H       479      M_A    0.0000
   3360 H          84.4700  222.1036   81.6208 H       479      M_A    0.0000
   3361 C          83.8029  224.8128   81.8586 C.3     480      M_A    0.0000
   3362 C          82.3029  225.0575   81.9656 C.3     480      M_A    0.0000
   3363 O          81.9928  226.2897   81.3165 O.3     480      M_A    0.0000
   3364 H          84.1553  224.3405   82.7825 H       480      M_A    0.0000
   3365 H          84.3335  225.7654   81.7485 H       480      M_A    0.0000
   3366 H          82.0436  225.1196   83.0318 H       480      M_A    0.0000
   3367 H          81.7303  224.2381   81.5107 H       480      M_A    0.0000
   3368 C          80.7631  226.8036   81.7817 C.3     481      M_A    0.0000
   3369 C          79.5628  226.0399   81.2364 C.3     481      M_A    0.0000
   3370 O          78.6228  226.9776   80.7138 O.3     481      M_A    0.0000
   3371 H          80.7583  226.7439   82.8759 H       481      M_A    0.0000
   3372 H          80.6937  227.8620   81.5060 H       481      M_A    0.0000
   3373 H          79.1109  225.4788   82.0664 H       481      M_A    0.0000
   3374 H          79.8619  225.3307   80.4530 H       481      M_A    0.0000
   3375 C          77.3005  226.5416   80.9465 C.3     482      M_A    0.0000
   3376 C          76.3681  226.8437   79.7800 C.3     482      M_A    0.0000
   3377 O          75.1483  227.3755   80.2951 O.3     482      M_A    0.0000
   3378 H          77.3212  225.4594   81.1172 H       482      M_A    0.0000
   3379 H          76.9263  227.0157   81.8610 H       482      M_A    0.0000
   3380 H          76.1718  225.9018   79.2487 H       482      M_A    0.0000
   3381 H          76.8225  227.5560   79.0785 H       482      M_A    0.0000
   3382 C          74.0494  226.9443   79.5212 C.3     483      M_A    0.0000
   3383 C          73.6451  227.9581   78.4580 C.3     483      M_A    0.0000
   3384 O          72.7871  227.3159   77.5161 O.3     483      M_A    0.0000
   3385 H          74.3227  226.0024   79.0322 H       483      M_A    0.0000
   3386 H          73.2040  226.7399   80.1881 H       483      M_A    0.0000
   3387 H          74.5585  228.3072   77.9562 H       483      M_A    0.0000
   3388 H          73.1350  228.8228   78.9031 H       483      M_A    0.0000
   3389 C          72.6576  228.0952   76.3463 C.3     484      M_A    0.0000
   3390 C          72.3536  229.5579   76.6450 C.3     484      M_A    0.0000
   3391 O          70.9380  229.7324   76.6840 O.3     484      M_A    0.0000
   3392 H          73.5975  228.0320   75.7863 H       484      M_A    0.0000
   3393 H          71.8675  227.6662   75.7197 H       484      M_A    0.0000
   3394 H          72.7844  230.1666   75.8376 H       484      M_A    0.0000
   3395 H          72.7979  229.8723   77.5989 H       484      M_A    0.0000
   3396 C          70.5046  230.0055   77.9994 C.3     485      M_A    0.0000
   3397 C          70.0238  231.4408   78.1738 C.3     485      M_A    0.0000
   3398 O          71.1557  232.3091   78.1454 O.3     485      M_A    0.0000
   3399 H          69.6828  229.3212   78.2388 H       485      M_A    0.0000
   3400 H          71.3255  229.7957   78.6944 H       485      M_A    0.0000
   3401 H          69.5189  231.5144   79.1472 H       485      M_A    0.0000
   3402 H          69.3130  231.7233   77.3857 H       485      M_A    0.0000
   3403 C          70.9469  233.4290   78.9790 C.3     486      M_A    0.0000
   3404 C          70.5121  234.6662   78.2035 C.3     486      M_A    0.0000
   3405 O          71.5204  234.9834   77.2451 O.3     486      M_A    0.0000
   3406 H          70.1709  233.1731   79.7092 H       486      M_A    0.0000
   3407 H          71.8697  233.6361   79.5329 H       486      M_A    0.0000
   3408 H          70.4003  235.4938   78.9181 H       486      M_A    0.0000
   3409 H          69.5505  234.5044   77.6983 H       486      M_A    0.0000
   3410 C          71.0365  235.9140   76.3004 C.3     487      M_A    0.0000
   3411 C          71.7768  237.2447   76.3537 C.3     487      M_A    0.0000
   3412 O          71.0221  238.1566   77.1503 O.3     487      M_A    0.0000
   3413 H          71.1521  235.4799   75.3009 H       487      M_A    0.0000
   3414 H          69.9658  236.0710   76.4732 H       487      M_A    0.0000
   3415 H          71.8638  237.6268   75.3269 H       487      M_A    0.0000
   3416 H          72.7852  237.1251   76.7720 H       487      M_A    0.0000
   3417 C          70.8282  237.6418   78.4504 C.3     488      M_A    0.0000
   3418 C          69.3751  237.7182   78.9023 C.3     488      M_A    0.0000
   3419 O          69.2505  238.7610   79.8681 O.3     488      M_A    0.0000
   3420 H          71.1503  236.5944   78.4561 H       488      M_A    0.0000
   3421 H          71.4697  238.1910   79.1489 H       488      M_A    0.0000
   3422 H          69.1088  236.7531   79.3558 H       488      M_A    0.0000
   3423 H          68.7021  237.9074   78.0553 H       488      M_A    0.0000
   3424 C          68.2324  238.4607   80.7987 C.3     489      M_A    0.0000
   3425 C          67.2529  239.6119   80.9903 C.3     489      M_A    0.0000
   3426 O          67.2789  240.0117   82.3597 O.3     489      M_A    0.0000
   3427 H          67.6860  237.5821   80.4377 H       489      M_A    0.0000
   3428 H          68.6941  238.1950   81.7565 H       489      M_A    0.0000
   3429 H          66.2491  239.2524   80.7235 H       489      M_A    0.0000
   3430 H          67.5054  240.4638   80.3448 H       489      M_A    0.0000
   3431 C          68.3813  240.8564   82.6125 C.3     490      M_A    0.0000
   3432 C          68.0194  242.0487   83.4894 C.3     490      M_A    0.0000
   3433 O          67.4677  243.0732   82.6637 O.3     490      M_A    0.0000
   3434 H          69.1577  240.2666   83.1129 H       490      M_A    0.0000
   3435 H          68.7904  241.2019   81.6563 H       490      M_A    0.0000
   3436 H          68.9398  242.4093   83.9700 H       490      M_A    0.0000
   3437 H          67.3008  241.7673   84.2707 H       490      M_A    0.0000
   3438 C          66.7685  242.5129   81.5729 C.3     491      M_A    0.0000
   3439 C          65.3182  242.9749   81.5045 C.3     491      M_A    0.0000
   3440 O          64.5372  242.1616   82.3788 O.3     491      M_A    0.0000
   3441 H          67.2813  242.8058   80.6498 H       491      M_A    0.0000
   3442 H          66.8132  241.4203   81.6461 H       491      M_A    0.0000
   3443 H          64.9709  242.8530   80.4689 H       491      M_A    0.0000
   3444 H          65.2211  244.0317   81.7869 H       491      M_A    0.0000
   3445 C          63.7228  242.9609   83.2099 C.3     492      M_A    0.0000
   3446 C          62.4994  242.2146   83.7274 C.3     492      M_A    0.0000
   3447 O          61.3384  243.0011   83.4640 O.3     492      M_A    0.0000
   3448 H          64.3255  243.2947   84.0621 H       492      M_A    0.0000
   3449 H          63.4130  243.8520   82.6521 H       492      M_A    0.0000
   3450 H          62.6196  242.0744   84.8108 H       492      M_A    0.0000
   3451 H          62.4017  241.2289   83.2530 H       492      M_A    0.0000
   3452 C          61.6752  244.3676   83.3547 C.3     493      M_A    0.0000
   3453 C          61.0215  245.2223   84.4334 C.3     493      M_A    0.0000
   3454 O          59.9654  245.9773   83.8413 O.3     493      M_A    0.0000
   3455 H          62.7642  244.4601   83.4358 H       493      M_A    0.0000
   3456 H          61.3839  244.7266   82.3610 H       493      M_A    0.0000
   3457 H          61.7852  245.9003   84.8395 H       493      M_A    0.0000
   3458 H          60.6289  244.6033   85.2512 H       493      M_A    0.0000
   3459 C          59.1877  245.1645   82.9886 C.3     494      M_A    0.0000
   3460 C          57.8900  244.7022   83.6396 C.3     494      M_A    0.0000
   3461 O          57.5100  243.4524   83.0657 O.3     494      M_A    0.0000
   3462 H          58.9505  245.7411   82.0874 H       494      M_A    0.0000
   3463 H          59.7850  244.2983   82.6819 H       494      M_A    0.0000
   3464 H          57.1189  245.4585   83.4356 H       494      M_A    0.0000
   3465 H          58.0027  244.5982   84.7271 H       494      M_A    0.0000
   3466 C          56.1936  243.1094   83.4426 C.3     495      M_A    0.0000
   3467 C          55.2544  242.9836   82.2495 C.3     495      M_A    0.0000
   3468 O          54.7912  244.2850   81.8926 O.3     495      M_A    0.0000
   3469 H          56.2275  242.1516   83.9741 H       495      M_A    0.0000
   3470 H          55.8164  243.8646   84.1415 H       495      M_A    0.0000
   3471 H          54.4060  242.3526   82.5496 H       495      M_A    0.0000
   3472 H          55.7566  242.5148   81.3927 H       495      M_A    0.0000
   3473 C          53.4411  244.2395   81.4828 C.3     496      M_A    0.0000
   3474 C          53.1587  243.0972   80.5149 C.3     496      M_A    0.0000
   3475 O          51.9216  243.3542   79.8522 O.3     496      M_A    0.0000
   3476 H          52.8159  244.1161   82.3743 H       496      M_A    0.0000
   3477 H          53.1776  245.1982   81.0217 H       496      M_A    0.0000
   3478 H          53.0862  242.1680   81.0974 H       496      M_A    0.0000
   3479 H          53.9653  242.9889   79.7775 H       496      M_A    0.0000
   3480 C          52.0793  244.3575   78.8718 C.3     497      M_A    0.0000
   3481 C          53.2337  245.3033   79.1789 C.3     497      M_A    0.0000
   3482 O          52.7034  246.5106   79.7241 O.3     497      M_A    0.0000
   3483 H          52.2633  243.8694   77.9080 H       497      M_A    0.0000
   3484 H          51.1430  244.9206   78.7863 H       497      M_A    0.0000
   3485 H          53.7590  245.5160   78.2372 H       497      M_A    0.0000
   3486 H          53.9439  244.8520   79.8846 H       497      M_A    0.0000
   3487 C          52.7282  246.4745   81.1350 C.3     498      M_A    0.0000
   3488 C          51.9571  245.2912   81.7065 C.3     498      M_A    0.0000
   3489 O          50.5982  245.3823   81.2813 O.3     498      M_A    0.0000
   3490 H          53.7734  246.4104   81.4582 H       498      M_A    0.0000
   3491 H          52.3175  247.4143   81.5214 H       498      M_A    0.0000
   3492 H          52.0117  245.3472   82.8028 H       498      M_A    0.0000
   3493 H          52.3902  244.3362   81.3803 H       498      M_A    0.0000
   3494 C          50.2426  244.2605   80.5017 C.3     499      M_A    0.0000
   3495 C          49.9212  244.6259   79.0580 C.3     499      M_A    0.0000
   3496 O          48.7994  243.8552   78.6297 O.3     499      M_A    0.0000
   3497 H          51.0807  243.5545   80.5142 H       499      M_A    0.0000
   3498 H          49.3826  243.7641   80.9655 H       499      M_A    0.0000
   3499 H          50.7991  244.3844   78.4424 H       499      M_A    0.0000
   3500 H          49.7028  245.6973   78.9555 H       499      M_A    0.0000
   3501 C          48.8740  242.5401   79.1373 C.3     500      M_A    0.0000
   3502 C          50.2012  241.8622   78.8207 C.3     500      M_A    0.0000
   3503 O          50.0009  240.4496   78.8037 O.3     500      M_A    0.0000
   3504 H          48.7450  242.5843   80.2247 H       500      M_A    0.0000
   3505 H          48.0438  241.9538   78.7273 H       500      M_A    0.0000
   3506 H          50.9170  242.1301   79.6106 H       500      M_A    0.0000
   3507 H          50.6011  242.1971   77.8542 H       500      M_A    0.0000
   3508 C          51.1734  239.7839   78.3857 C.3     501      M_A    0.0000
   3509 C          51.5211  240.0646   76.9290 C.3     501      M_A    0.0000
   3510 O          52.9057  239.7853   76.7271 O.3     501      M_A    0.0000
   3511 H          52.0017  240.1159   79.0218 H       501      M_A    0.0000
   3512 H          51.0449  238.7068   78.5418 H       501      M_A    0.0000
   3513 H          51.3197  241.1265   76.7298 H       501      M_A    0.0000
   3514 H          50.9113  239.4563   76.2477 H       501      M_A    0.0000
   3515 C          53.1324  238.3929   76.6788 C.3     502      M_A    0.0000
   3516 C          54.5661  238.0180   77.0332 C.3     502      M_A    0.0000
   3517 O          55.4515  238.9236   76.3761 O.3     502      M_A    0.0000
   3518 H          52.4505  237.9095   77.3875 H       502      M_A    0.0000
   3519 H          52.8839  238.0274   75.6760 H       502      M_A    0.0000
   3520 H          54.7471  236.9933   76.6793 H       502      M_A    0.0000
   3521 H          54.7317  238.0507   78.1183 H       502      M_A    0.0000
   3522 C          55.3593  240.2126   76.9440 C.3     503      M_A    0.0000
   3523 C          55.9065  241.2995   76.0272 C.3     503      M_A    0.0000
   3524 O          57.2832  241.5098   76.3376 O.3     503      M_A    0.0000
   3525 H          54.3041  240.4199   77.1549 H       503      M_A    0.0000
   3526 H          55.8969  240.2190   77.8990 H       503      M_A    0.0000
   3527 H          55.3354  242.2201   76.2124 H       503      M_A    0.0000
   3528 H          55.7971  241.0236   74.9698 H       503      M_A    0.0000
   3529 C          58.0762  240.4590   75.8279 C.3     504      M_A    0.0000
   3530 C          59.3331  240.9582   75.1263 C.3     504      M_A    0.0000
   3531 O          59.7404  239.9825   74.1682 O.3     504      M_A    0.0000
   3532 H          58.3657  239.8115   76.6633 H       504      M_A    0.0000
   3533 H          57.4712  239.8606   75.1373 H       504      M_A    0.0000
   3534 H          60.1173  241.0887   75.8852 H       504      M_A    0.0000
   3535 H          59.1584  241.9224   74.6304 H       504      M_A    0.0000
   3536 C          61.0619  240.2274   73.7368 C.3     505      M_A    0.0000
   3537 C          61.2953  241.6838   73.3549 C.3     505      M_A    0.0000
   3538 O          62.6268  241.8195   72.8604 O.3     505      M_A    0.0000
   3539 H          61.7441  239.9571   74.5507 H       505      M_A    0.0000
   3540 H          61.2843  239.5740   72.8855 H       505      M_A    0.0000
   3541 H          61.1661  242.2971   74.2577 H       505      M_A    0.0000
   3542 H          60.5760  242.0185   72.5955 H       505      M_A    0.0000
   3543 C          63.2875  240.5721   72.8565 C.3     506      M_A    0.0000
   3544 C          64.7555  240.6831   73.2491 C.3     506      M_A    0.0000
   3545 O          65.5441  240.0148   72.2656 O.3     506      M_A    0.0000
   3546 H          62.7764  239.9109   73.5654 H       506      M_A    0.0000
   3547 H          63.1965  240.1253   71.8598 H       506      M_A    0.0000
   3548 H          64.8839  240.1971   74.2265 H       506      M_A    0.0000
   3549 H          65.0689  241.7323   73.3333 H       506      M_A    0.0000
   3550 C          66.9186  240.1272   72.5667 C.3     507      M_A    0.0000
   3551 C          67.7792  240.3155   71.3237 C.3     507      M_A    0.0000
   3552 O          69.0797  239.7890   71.5835 O.3     507      M_A    0.0000
   3553 H          67.0549  240.9886   73.2304 H       507      M_A    0.0000
   3554 H          67.2365  239.2323   73.1135 H       507      M_A    0.0000
   3555 H          67.8453  241.3927   71.1157 H       507      M_A    0.0000
   3556 H          67.3379  239.8146   70.4517 H       507      M_A    0.0000
   3557 C          69.8112  239.6507   70.3842 C.3     508      M_A    0.0000
   3558 C          71.2260  239.1343   70.6148 C.3     508      M_A    0.0000
   3559 O          72.1515  240.1580   70.2524 O.3     508      M_A    0.0000
   3560 H          69.2756  238.9493   69.7346 H       508      M_A    0.0000
   3561 H          69.8421  240.6199   69.8735 H       508      M_A    0.0000
   3562 H          71.3741  238.2517   69.9767 H       508      M_A    0.0000
   3563 H          71.3795  238.8419   71.6622 H       508      M_A    0.0000
   3564 C          73.4272  239.6103   69.9970 C.3     509      M_A    0.0000
   3565 C          74.2287  239.3684   71.2701 C.3     509      M_A    0.0000
   3566 O          75.6142  239.5461   70.9791 O.3     509      M_A    0.0000
   3567 H          73.2928  238.6577   69.4723 H       509      M_A    0.0000
   3568 H          73.9754  240.2840   69.3286 H       509      M_A    0.0000
   3569 H          74.0435  238.3357   71.5975 H       509      M_A    0.0000
   3570 H          73.9219  240.0529   72.0722 H       509      M_A    0.0000
   3571 C          76.3099  240.0002   72.1204 C.3     510      M_A    0.0000
   3572 C          77.8225  239.9571   71.9426 C.3     510      M_A    0.0000
   3573 O          78.2969  238.6804   72.3677 O.3     510      M_A    0.0000
   3574 H          76.0023  241.0327   72.3212 H       510      M_A    0.0000
   3575 H          76.0139  239.3912   72.9821 H       510      M_A    0.0000
   3576 H          78.2611  240.7475   72.5679 H       510      M_A    0.0000
   3577 H          78.1078  240.1355   70.8973 H       510      M_A    0.0000
   3578 C          79.4940  238.3446   71.6993 C.3     511      M_A    0.0000
   3579 C          79.6498  236.8433   71.4909 C.3     511      M_A    0.0000
   3580 O          81.0043  236.5686   71.1366 O.3     511      M_A    0.0000
   3581 H          79.4935  238.8432   70.7234 H       511      M_A    0.0000
   3582 H          80.3423  238.7357   72.2724 H       511      M_A    0.0000
   3583 H          78.9798  236.5421   70.6734 H       511      M_A    0.0000
   3584 H          79.3765  236.2833   72.3952 H       511      M_A    0.0000
   3585 C          81.8446  236.6599   72.2672 C.3     512      M_A    0.0000
   3586 C          83.2136  236.0329   72.0343 C.3     512      M_A    0.0000
   3587 O          84.1029  236.4836   73.0550 O.3     512      M_A    0.0000
   3588 H          81.9736  237.7198   72.5140 H       512      M_A    0.0000
   3589 H          81.3489  236.1781   73.1176 H       512      M_A    0.0000
   3590 H          83.5752  236.3614   71.0498 H       512      M_A    0.0000
   3591 H          83.1578  234.9361   72.0414 H       512      M_A    0.0000
   3592 C          83.8341  235.8289   74.2764 C.3     513      M_A    0.0000
   3593 C          85.0219  235.0211   74.7843 C.3     513      M_A    0.0000
   3594 O          85.0011  233.7369   74.1628 O.3     513      M_A    0.0000
   3595 H          83.5723  236.5881   75.0222 H       513      M_A    0.0000
   3596 H          82.9629  235.1769   74.1454 H       513      M_A    0.0000
   3597 H          84.9188  234.9126   75.8731 H       513      M_A    0.0000
   3598 H          85.9720  235.5281   74.5689 H       513      M_A    0.0000
   3599 C          83.8691  233.6033   73.3301 C.3     514      M_A    0.0000
   3600 C          84.1821  232.8853   72.0233 C.3     514      M_A    0.0000
   3601 O          84.9620  233.7517   71.2005 O.3     514      M_A    0.0000
   3602 H          83.1066  233.0366   73.8762 H       514      M_A    0.0000
   3603 H          83.4601  234.5991   73.1247 H       514      M_A    0.0000
   3604 H          83.2297  232.6529   71.5263 H       514      M_A    0.0000
   3605 H          84.7244  231.9472   72.2020 H       514      M_A    0.0000
   3606 C          84.9927  233.2824   69.8695 C.3     515      M_A    0.0000
   3607 C          85.8473  232.0316   69.7068 C.3     515      M_A    0.0000
   3608 O          86.1097  231.8342   68.3182 O.3     515      M_A    0.0000
   3609 H          83.9655  233.0567   69.5616 H       515      M_A    0.0000
   3610 H          85.3668  234.0819   69.2199 H       515      M_A    0.0000
   3611 H          85.2812  231.1785   70.1065 H       515      M_A    0.0000
   3612 H          86.7923  232.1178   70.2597 H       515      M_A    0.0000
   3613 C          86.5984  230.5310   68.0827 C.3     516      M_A    0.0000
   3614 C          87.9997  230.5278   67.4846 C.3     516      M_A    0.0000
   3615 O          87.9061  230.1909   66.1013 O.3     516      M_A    0.0000
   3616 H          86.6154  229.9933   69.0374 H       516      M_A    0.0000
   3617 H          85.9033  230.0061   67.4175 H       516      M_A    0.0000
   3618 H          88.5944  229.7712   68.0155 H       516      M_A    0.0000
   3619 H          88.4870  231.5050   67.6018 H       516      M_A    0.0000
   3620 C          89.1574  229.7659   65.6050 C.3     517      M_A    0.0000
   3621 C          90.2903  230.7142   65.9774 C.3     517      M_A    0.0000
   3622 O          91.4587  230.3393   65.2492 O.3     517      M_A    0.0000
   3623 H          89.3710  228.7735   66.0178 H       517      M_A    0.0000
   3624 H          89.0918  229.6661   64.5156 H       517      M_A    0.0000
   3625 H          90.4739  230.6175   67.0567 H       517      M_A    0.0000
   3626 H          90.0279  231.7574   65.7565 H       517      M_A    0.0000
   3627 C          92.6242  230.6336   65.9893 C.3     518      M_A    0.0000
   3628 C          92.5428  231.9762   66.7049 C.3     518      M_A    0.0000
   3629 O          93.8652  232.4833   66.8782 O.3     518      M_A    0.0000
   3630 H          92.7685  229.8405   66.7316 H       518      M_A    0.0000
   3631 H          93.4870  230.6181   65.3137 H       518      M_A    0.0000
   3632 H          92.0728  231.8115   67.6847 H       518      M_A    0.0000
   3633 H          91.9353  232.6952   66.1390 H       518      M_A    0.0000
   3634 C          93.8345  233.8551   67.2094 C.3     519      M_A    0.0000
   3635 C          95.1527  234.5604   66.9154 C.3     519      M_A    0.0000
   3636 O          95.9217  234.6124   68.1161 O.3     519      M_A    0.0000
   3637 H          93.0366  234.3306   66.6280 H       519      M_A    0.0000
   3638 H          93.5800  233.9585   68.2704 H       519      M_A    0.0000
   3639 H          94.9241  235.5792   66.5720 H       519      M_A    0.0000
   3640 H          95.7173  234.0418   66.1290 H       519      M_A    0.0000
   3641 C          96.9430  233.6381   68.0976 C.3     520      M_A    0.0000
   3642 C          98.3375  234.2492   68.0397 C.3     520      M_A    0.0000
   3643 O          99.1143  233.5269   67.0853 O.3     520      M_A    0.0000
   3644 H          96.8553  233.0319   69.0063 H       520      M_A    0.0000
   3645 H          96.7858  232.9753   67.2390 H       520      M_A    0.0000
   3646 H          98.7901  234.1589   69.0371 H       520      M_A    0.0000
   3647 H          98.2976  235.3119   67.7655 H       520      M_A    0.0000
   3648 C         100.3250  234.2003   66.8145 C.3     521      M_A    0.0000
   3649 C         101.1114  233.5613   65.6767 C.3     521      M_A    0.0000
   3650 O         102.0083  232.5970   66.2256 O.3     521      M_A    0.0000
   3651 H         100.0889  235.2369   66.5485 H       521      M_A    0.0000
   3652 H         100.9315  234.2209   67.7271 H       521      M_A    0.0000
   3653 H         101.6780  234.3537   65.1678 H       521      M_A    0.0000
   3654 H         100.4435  233.0823   64.9483 H       521      M_A    0.0000
   3655 C         101.6423  231.2923   65.8298 C.3     522      M_A    0.0000
   3656 C         102.7150  230.2585   66.1488 C.3     522      M_A    0.0000
   3657 O         102.9032  229.4265   65.0049 O.3     522      M_A    0.0000
   3658 H         100.7178  231.0220   66.3526 H       522      M_A    0.0000
   3659 H         101.4282  231.2944   64.7549 H       522      M_A    0.0000
   3660 H         102.3641  229.6551   66.9977 H       522      M_A    0.0000
   3661 H         103.6634  230.7381   66.4253 H       522      M_A    0.0000
   3662 C         103.1797  228.0980   65.3937 C.3     523      M_A    0.0000
   3663 C         104.1929  228.0165   66.5287 C.3     523      M_A    0.0000
   3664 O         105.3903  227.4209   66.0313 O.3     523      M_A    0.0000
   3665 H         102.2417  227.6329   65.7172 H       523      M_A    0.0000
   3666 H         103.5439  227.5417   64.5225 H       523      M_A    0.0000
   3667 H         103.7641  227.3895   67.3231 H       523      M_A    0.0000
   3668 H         104.4108  229.0100   66.9428 H       523      M_A    0.0000
   3669 C         106.1365  226.8464   67.0829 C.3     524      M_A    0.0000
   3670 C         107.5541  227.3983   67.1677 C.3     524      M_A    0.0000
   3671 O         108.4729  226.3074   67.1287 O.3     524      M_A    0.0000
   3672 H         105.6156  227.0514   68.0250 H       524      M_A    0.0000
   3673 H         106.1626  225.7592   66.9468 H       524      M_A    0.0000
   3674 H         107.6526  227.9378   68.1202 H       524      M_A    0.0000
   3675 H         107.7622  228.0951   66.3447 H       524      M_A    0.0000
   3676 C         109.5578  226.5368   68.0023 C.3     525      M_A    0.0000
   3677 C         110.9020  226.1908   67.3738 C.3     525      M_A    0.0000
   3678 O         111.2152  224.8333   67.6819 O.3     525      M_A    0.0000
   3679 H         109.5553  227.5966   68.2813 H       525      M_A    0.0000
   3680 H         109.4072  225.9516   68.9165 H       525      M_A    0.0000
   3681 H         111.6611  226.8582   67.8055 H       525      M_A    0.0000
   3682 H         110.8838  226.3351   66.2853 H       525      M_A    0.0000
   3683 C         110.3071  223.9558   67.0510 C.3     526      M_A    0.0000
   3684 C         110.9443  222.6257   66.6684 C.3     526      M_A    0.0000
   3685 O         110.5694  222.3072   65.3291 O.3     526      M_A    0.0000
   3686 H         109.4755  223.7693   67.7399 H       526      M_A    0.0000
   3687 H         109.8981  224.4478   66.1612 H       526      M_A    0.0000
   3688 H         110.5659  221.8569   67.3567 H       526      M_A    0.0000
   3689 H         112.0384  222.6671   66.7532 H       526      M_A    0.0000
   3690 C         110.6762  220.9189   65.0973 C.3     527      M_A    0.0000
   3691 C         112.1212  220.4364   65.0729 C.3     527      M_A    0.0000
   3692 O         112.4179  219.9461   63.7662 O.3     527      M_A    0.0000
   3693 H         110.1375  220.3955   65.8953 H       527      M_A    0.0000
   3694 H         110.1823  220.6783   64.1491 H       527      M_A    0.0000
   3695 H         112.2219  219.6266   65.8092 H       527      M_A    0.0000
   3696 H         112.8171  221.2433   65.3390 H       527      M_A    0.0000
   3697 C         113.7986  220.0554   63.4934 C.3     528      M_A    0.0000
   3698 C         114.3501  221.4425   63.7987 C.3     528      M_A    0.0000
   3699 O         114.5013  222.1551   62.5719 O.3     528      M_A    0.0000
   3700 H         114.3287  219.3168   64.1052 H       528      M_A    0.0000
   3701 H         113.9736  219.8032   62.4413 H       528      M_A    0.0000
   3702 H         115.3285  221.3202   64.2844 H       528      M_A    0.0000
   3703 H         113.6870  221.9966   64.4764 H       528      M_A    0.0000
   3704 C         115.8661  222.2900   62.2376 C.3     529      M_A    0.0000
   3705 C         116.3224  221.2666   61.2051 C.3     529      M_A    0.0000
   3706 O         117.4090  220.5197   61.7503 O.3     529      M_A    0.0000
   3707 H         116.0230  223.2976   61.8364 H       529      M_A    0.0000
   3708 H         116.4658  222.1980   63.1502 H       529      M_A    0.0000
   3709 H         116.6535  221.8113   60.3097 H       529      M_A    0.0000
   3710 H         115.5044  220.5900   60.9237 H       529      M_A    0.0000
   3711 C         117.7665  219.4585   60.8909 C.3     530      M_A    0.0000
   3712 C         118.4726  218.3230   61.6213 C.3     530      M_A    0.0000
   3713 O         119.8821  218.4977   61.4848 O.3     530      M_A    0.0000
   3714 H         116.8530  219.0714   60.4255 H       530      M_A    0.0000
   3715 H         118.4072  219.8491   60.0921 H       530      M_A    0.0000
   3716 H         118.1652  217.3760   61.1557 H       530      M_A    0.0000
   3717 H         118.1977  218.2987   62.6842 H       530      M_A    0.0000
   3718 C         120.5792  217.4427   62.1122 C.3     531      M_A    0.0000
   3719 C         121.3438  217.8970   63.3493 C.3     531      M_A    0.0000
   3720 O         122.7419  217.7627   63.0980 O.3     531      M_A    0.0000
   3721 H         119.8521  216.6759   62.4024 H       531      M_A    0.0000
   3722 H         121.2672  216.9917   61.3881 H       531      M_A    0.0000
   3723 H         121.0496  217.2501   64.1877 H       531      M_A    0.0000
   3724 H         121.1061  218.9378   63.6068 H       531      M_A    0.0000
   3725 C         123.4755  217.8432   64.3013 C.3     532      M_A    0.0000
   3726 C         124.7872  218.6015   64.1405 C.3     532      M_A    0.0000
   3727 O         125.8098  217.6751   63.7776 O.3     532      M_A    0.0000
   3728 H         122.8560  218.3537   65.0473 H       532      M_A    0.0000
   3729 H         123.6690  216.8285   64.6675 H       532      M_A    0.0000
   3730 H         125.0300  219.0694   65.1050 H       532      M_A    0.0000
   3731 H         124.7041  219.3878   63.3783 H       532      M_A    0.0000
   3732 C         125.4902  217.0287   62.5640 C.3     533      M_A    0.0000
   3733 C         126.5874  216.0806   62.0963 C.3     533      M_A    0.0000
   3734 O         126.0021  215.0756   61.2697 O.3     533      M_A    0.0000
   3735 H         124.5649  216.4603   62.7114 H       533      M_A    0.0000
   3736 H         125.2960  217.7879   61.7979 H       533      M_A    0.0000
   3737 H         127.0396  215.6186   62.9852 H       533      M_A    0.0000
   3738 H         127.3692  216.6161   61.5411 H       533      M_A    0.0000
   3739 C         126.9174  214.6423   60.2863 C.3     534      M_A    0.0000
   3740 C         127.4589  213.2451   60.5621 C.3     534      M_A    0.0000
   3741 O         128.8390  213.3494   60.9088 O.3     534      M_A    0.0000
   3742 H         126.4057  214.6430   59.3172 H       534      M_A    0.0000
   3743 H         127.7422  215.3615   60.2276 H       534      M_A    0.0000
   3744 H         127.3464  212.6496   59.6452 H       534      M_A    0.0000
   3745 H         126.9036  212.7534   61.3721 H       534      M_A    0.0000
   3746 C         129.6125  213.6967   59.7802 C.3     535      M_A    0.0000
   3747 C         130.7205  212.6906   59.4947 C.3     535      M_A    0.0000
   3748 O         131.9465  213.1994   60.0181 O.3     535      M_A    0.0000
   3749 H         128.9465  213.7518   58.9117 H       535      M_A    0.0000
   3750 H         130.0395  214.6939   59.9358 H       535      M_A    0.0000
   3751 H         130.7989  212.5710   58.4049 H       535      M_A    0.0000
   3752 H         130.4978  211.7125   59.9416 H       535      M_A    0.0000
   3753 C         132.9592  212.2176   59.9616 C.3     536      M_A    0.0000
   3754 C         134.2097  212.6178   60.7347 C.3     536      M_A    0.0000
   3755 O         135.3559  212.1562   60.0213 O.3     536      M_A    0.0000
   3756 H         132.5598  211.2883   60.3832 H       536      M_A    0.0000
   3757 H         133.2099  212.0262   58.9121 H       536      M_A    0.0000
   3758 H         134.1658  212.1398   61.7235 H       536      M_A    0.0000
   3759 H         134.2646  213.7061   60.8713 H       536      M_A    0.0000
   3760 C         136.3771  211.7673   60.9149 C.3     537      M_A    0.0000
   3761 C         137.7562  212.2419   60.4741 C.3     537      M_A    0.0000
   3762 O         138.4463  211.1472   59.8730 O.3     537      M_A    0.0000
   3763 H         136.1507  212.1910   61.8999 H       537      M_A    0.0000
   3764 H         136.3671  210.6757   61.0119 H       537      M_A    0.0000
   3765 H         138.2996  212.5834   61.3663 H       537      M_A    0.0000
   3766 H         137.6841  213.0767   59.7641 H       537      M_A    0.0000
   3767 C         137.9452  210.8913   58.5784 C.3     538      M_A    0.0000
   3768 C         138.9756  210.2344   57.6684 C.3     538      M_A    0.0000
   3769 O         139.7342  211.2564   57.0234 O.3     538      M_A    0.0000
   3770 H         137.0763  210.2300   58.6713 H       538      M_A    0.0000
   3771 H         137.6002  211.8340   58.1386 H       538      M_A    0.0000
   3772 H         138.4365  209.6380   56.9190 H       538      M_A    0.0000
   3773 H         139.6431  209.5703   58.2336 H       538      M_A    0.0000
   3774 C         141.0871  210.8725   56.9016 C.3     539      M_A    0.0000
   3775 C         141.8070  210.8222   58.2435 C.3     539      M_A    0.0000
   3776 O         143.0676  210.1787   58.0626 O.3     539      M_A    0.0000
   3777 H         141.1216  209.8794   56.4395 H       539      M_A    0.0000
   3778 H         141.5950  211.5712   56.2272 H       539      M_A    0.0000
   3779 H         141.1865  210.2421   58.9409 H       539      M_A    0.0000
   3780 H         141.9544  211.8291   58.6565 H       539      M_A    0.0000
   3781 C         142.9540  208.7883   58.2779 C.3     540      M_A    0.0000
   3782 C         144.2454  208.1657   58.7936 C.3     540      M_A    0.0000
   3783 O         144.6804  207.1765   57.8619 O.3     540      M_A    0.0000
   3784 H         142.1572  208.6187   59.0110 H       540      M_A    0.0000
   3785 H         142.6516  208.3075   57.3406 H       540      M_A    0.0000
   3786 H         144.0333  207.6982   59.7654 H       540      M_A    0.0000
   3787 H         145.0282  208.9237   58.9305 H       540      M_A    0.0000
   3788 C         146.0039  206.7737   58.1427 C.3     541      M_A    0.0000
   3789 C         146.9980  207.9257   58.0650 C.3     541      M_A    0.0000
   3790 O         147.9498  207.6404   57.0410 O.3     541      M_A    0.0000
   3791 H         146.0262  206.3491   59.1527 H       541      M_A    0.0000
   3792 H         146.2898  205.9809   57.4421 H       541      M_A    0.0000
   3793 H         147.5049  208.0037   59.0370 H       541      M_A    0.0000
   3794 H         146.4921  208.8773   57.8538 H       541      M_A    0.0000
   3795 C         149.0710  208.4911   57.1503 C.3     542      M_A    0.0000
   3796 C         149.9313  208.4943   55.8928 C.3     542      M_A    0.0000
   3797 O         151.2544  208.0908   56.2427 O.3     542      M_A    0.0000
   3798 H         148.7121  209.5088   57.3411 H       542      M_A    0.0000
   3799 H         149.6685  208.1814   58.0153 H       542      M_A    0.0000
   3800 H         149.9448  209.5178   55.4925 H       542      M_A    0.0000
   3801 H         149.5229  207.8215   55.1269 H       542      M_A    0.0000
   3802 C         152.0208  207.8345   55.0852 C.3     543      M_A    0.0000
   3803 C         152.5408  206.4034   55.0294 C.3     543      M_A    0.0000
   3804 O         153.8874  206.3872   55.5010 O.3     543      M_A    0.0000
   3805 H         151.3905  208.0208   54.2083 H       543      M_A    0.0000
   3806 H         152.8575  208.5414   55.0498 H       543      M_A    0.0000
   3807 H         152.5058  206.0694   53.9829 H       543      M_A    0.0000
   3808 H         151.9217  205.7288   55.6357 H       543      M_A    0.0000
   3809 C         154.5676  205.2434   55.0301 C.3     544      M_A    0.0000
   3810 C         154.7127  204.1651   56.0967 C.3     544      M_A    0.0000
   3811 O         155.8818  203.3971   55.8148 O.3     544      M_A    0.0000
   3812 H         154.0059  204.8350   54.1823 H       544      M_A    0.0000
   3813 H         155.5548  205.5443   54.6613 H       544      M_A    0.0000
   3814 H         153.8223  203.5222   56.0538 H       544      M_A    0.0000
   3815 H         154.7834  204.6029   57.1014 H       544      M_A    0.0000
   3816 C         155.8811  202.1960   56.5565 C.3     545      M_A    0.0000
   3817 C         157.2375  201.5022   56.5531 C.3     545      M_A    0.0000
   3818 O         157.1120  200.2553   55.8709 O.3     545      M_A    0.0000
   3819 H         155.6018  202.4311   57.5897 H       545      M_A    0.0000
   3820 H         155.1145  201.5274   56.1485 H       545      M_A    0.0000
   3821 H         157.5342  201.3303   57.5973 H       545      M_A    0.0000
   3822 H         158.0028  202.1219   56.0667 H       545      M_A    0.0000
   3823 C         158.3802  199.6733   55.6570 C.3     546      M_A    0.0000
   3824 C         158.2938  198.2985   55.0060 C.3     546      M_A    0.0000
   3825 O         158.9434  197.3503   55.8515 O.3     546      M_A    0.0000
   3826 H         158.9589  200.3407   55.0085 H       546      M_A    0.0000
   3827 H         158.9053  199.6039   56.6165 H       546      M_A    0.0000
   3828 H         158.8068  198.3489   54.0354 H       546      M_A    0.0000
   3829 H         157.2503  198.0001   54.8382 H       546      M_A    0.0000
   3830 C         159.5902  196.3577   55.0840 C.3     547      M_A    0.0000
   3831 C         158.6841  195.1736   54.7705 C.3     547      M_A    0.0000
   3832 O         159.4192  193.9680   54.9754 O.3     547      M_A    0.0000
   3833 H         159.9223  196.8130   54.1441 H       547      M_A    0.0000
   3834 H         160.4821  196.0178   55.6224 H       547      M_A    0.0000
   3835 H         158.3755  195.2506   53.7185 H       547      M_A    0.0000
   3836 H         157.7859  195.1787   55.4026 H       547      M_A    0.0000
   3837 C         158.5450  192.8779   55.1753 C.3     548      M_A    0.0000
   3838 C         159.1913  191.5380   54.8461 C.3     548      M_A    0.0000
   3839 O         158.4692  190.9327   53.7745 O.3     548      M_A    0.0000
   3840 H         158.2332  192.8764   56.2259 H       548      M_A    0.0000
   3841 H         157.6484  193.0249   54.5624 H       548      M_A    0.0000
   3842 H         159.1347  190.9038   55.7419 H       548      M_A    0.0000
   3843 H         160.2464  191.6604   54.5670 H       548      M_A    0.0000
   3844 C         158.6004  189.5278   53.8148 C.3     549      M_A    0.0000
   3845 C         160.0227  189.0617   53.5302 C.3     549      M_A    0.0000
   3846 O         160.1328  188.7494   52.1423 O.3     549      M_A    0.0000
   3847 H         158.3039  189.1841   54.8122 H       549      M_A    0.0000
   3848 H         157.9066  189.0856   53.0907 H       549      M_A    0.0000
   3849 H         160.2132  188.1628   54.1332 H       549      M_A    0.0000
   3850 H         160.7579  189.8309   53.8023 H       549      M_A    0.0000
   3851 C         161.0325  187.6805   51.9408 C.3     550      M_A    0.0000
   3852 C         162.4858  188.1357   51.8960 C.3     550      M_A    0.0000
   3853 O         162.8601  188.3380   50.5341 O.3     550      M_A    0.0000
   3854 H         160.9062  186.9664   52.7625 H       550      M_A    0.0000
   3855 H         160.7695  187.1660   51.0095 H       550      M_A    0.0000
   3856 H         163.1042  187.3437   52.3413 H       550      M_A    0.0000
   3857 H         162.6330  189.0614   52.4682 H       550      M_A    0.0000
   3858 C         164.2158  188.0000   50.3333 C.3     551      M_A    0.0000
   3859 C         165.1147  188.4759   51.4677 C.3     551      M_A    0.0000
   3860 O         166.4676  188.1603   51.1427 O.3     551      M_A    0.0000
   3861 H         164.2890  186.9096   50.2520 H       551      M_A    0.0000
   3862 H         164.5511  188.4278   49.3817 H       551      M_A    0.0000
   3863 H         164.8156  187.9469   52.3835 H       551      M_A    0.0000
   3864 H         165.0101  189.5564   51.6347 H       551      M_A    0.0000
   3865 C         167.2930  188.2668   52.2829 C.3     552      M_A    0.0000
   3866 C         168.7585  187.9841   51.9763 C.3     552      M_A    0.0000
   3867 O         169.5549  189.0143   52.5595 O.3     552      M_A    0.0000
   3868 H         167.2001  189.2840   52.6798 H       552      M_A    0.0000
   3869 H         166.9283  187.5753   53.0510 H       552      M_A    0.0000
   3870 H         168.8840  187.9857   50.8844 H       552      M_A    0.0000
   3871 H         169.0669  187.0044   52.3652 H       552      M_A    0.0000
   3872 C         170.9288  188.7498   52.3721 C.3     553      M_A    0.0000
   3873 C         171.6285  189.8273   51.5530 C.3     553      M_A    0.0000
   3874 O         172.1204  189.2398   50.3493 O.3     553      M_A    0.0000
   3875 H         171.4032  188.6850   53.3578 H       553      M_A    0.0000
   3876 H         171.0393  187.7744   51.8848 H       553      M_A    0.0000
   3877 H         172.4653  190.2179   52.1490 H       553      M_A    0.0000
   3878 H         170.9473  190.6556   51.3163 H       553      M_A    0.0000
   3879 C         173.3837  189.7728   50.0136 C.3     554      M_A    0.0000
   3880 C         174.1800  188.8600   49.0893 C.3     554      M_A    0.0000
   3881 O         175.2693  188.3031   49.8235 O.3     554      M_A    0.0000
   3882 H         173.2282  190.7373   49.5172 H       554      M_A    0.0000
   3883 H         173.9464  189.9598   50.9353 H       554      M_A    0.0000
   3884 H         174.5608  189.4678   48.2565 H       554      M_A    0.0000
   3885 H         173.5517  188.0571   48.6813 H       554      M_A    0.0000
   3886 C         175.0879  186.9158   50.0108 C.3     555      M_A    0.0000
   3887 C         176.0672  186.3254   51.0177 C.3     555      M_A    0.0000
   3888 O         176.7515  185.2339   50.4045 O.3     555      M_A    0.0000
   3889 H         174.0648  186.7486   50.3662 H       555      M_A    0.0000
   3890 H         175.1909  186.4106   49.0438 H       555      M_A    0.0000
   3891 H         175.4914  185.9685   51.8832 H       555      M_A    0.0000
   3892 H         176.7901  187.0775   51.3611 H       555      M_A    0.0000
   3893 C         177.1124  184.2666   51.3671 C.3     556      M_A    0.0000
   3894 C         178.4455  184.5737   52.0380 C.3     556      M_A    0.0000
   3895 O         179.2154  183.3739   52.0967 O.3     556      M_A    0.0000
   3896 H         176.3269  184.2326   52.1305 H       556      M_A    0.0000
   3897 H         177.1507  183.2831   50.8850 H       556      M_A    0.0000
   3898 H         178.2389  184.9369   53.0546 H       556      M_A    0.0000
   3899 H         178.9988  185.3495   51.4921 H       556      M_A    0.0000
   3900 C         179.7457  183.0583   50.8271 C.3     557      M_A    0.0000
   3901 C         180.7474  181.9113   50.8769 C.3     557      M_A    0.0000
   3902 O         182.0665  182.4543   50.8486 O.3     557      M_A    0.0000
   3903 H         178.9155  182.7801   50.1681 H       557      M_A    0.0000
   3904 H         180.2181  183.9536   50.4072 H       557      M_A    0.0000
   3905 H         180.5834  181.2780   49.9938 H       557      M_A    0.0000
   3906 H         180.6113  181.3002   51.7792 H       557      M_A    0.0000
   3907 C         182.9349  181.6995   51.6664 C.3     558      M_A    0.0000
   3908 C         184.3459  182.2724   51.7117 C.3     558      M_A    0.0000
   3909 O         185.2561  181.2857   51.2282 O.3     558      M_A    0.0000
   3910 H         182.5224  181.6833   52.6816 H       558      M_A    0.0000
   3911 H         182.9588  180.6667   51.3005 H       558      M_A    0.0000
   3912 H         184.5798  182.5184   52.7571 H       558      M_A    0.0000
   3913 H         184.4263  183.1864   51.1081 H       558      M_A    0.0000
   3914 C         185.3874  180.2300   52.1561 C.3     559      M_A    0.0000
   3915 C         186.6740  180.3170   52.9675 C.3     559      M_A    0.0000
   3916 O         187.6893  179.5720   52.2967 O.3     559      M_A    0.0000
   3917 H         184.5307  180.2647   52.8386 H       559      M_A    0.0000
   3918 H         185.3451  179.2766   51.6173 H       559      M_A    0.0000
   3919 H         186.4816  179.8813   53.9580 H       559      M_A    0.0000
   3920 H         186.9956  181.3591   53.0972 H       559      M_A    0.0000
   3921 C         188.7856  179.3374   53.1544 C.3     560      M_A    0.0000
   3922 C         190.0690  179.0234   52.3957 C.3     560      M_A    0.0000
   3923 O         190.6772  177.8733   52.9816 O.3     560      M_A    0.0000
   3924 H         188.9411  180.2337   53.7654 H       560      M_A    0.0000
   3925 H         188.5363  178.5124   53.8315 H       560      M_A    0.0000
   3926 H         190.7390  179.8898   52.4875 H       560      M_A    0.0000
   3927 H         189.8703  178.8427   51.3308 H       560      M_A    0.0000
   3928 C         191.3369  177.1027   52.0000 C.3     561      M_A    0.0000
   3929 C         191.9373  175.8210   52.5642 C.3     561      M_A    0.0000
   3930 O         193.2900  175.7163   52.1226 O.3     561      M_A    0.0000
   3931 H         190.6107  176.8450   51.2209 H       561      M_A    0.0000
   3932 H         192.1198  177.7135   51.5362 H       561      M_A    0.0000
   3933 H         191.3512  174.9737   52.1817 H       561      M_A    0.0000
   3934 H         191.8979  175.8100   53.6617 H       561      M_A    0.0000
   3935 C         193.6398  174.3668   51.9008 C.3     562      M_A    0.0000
   3936 C         194.5747  173.8182   52.9716 C.3     562      M_A    0.0000
   3937 O         195.2498  172.6756   52.4478 O.3     562      M_A    0.0000
   3938 H         192.7199  173.7714   51.8896 H       562      M_A    0.0000
   3939 H         194.1054  174.2786   50.9126 H       562      M_A    0.0000
   3940 H         193.9653  173.5288   53.8393 H       562      M_A    0.0000
   3941 H         195.3053  174.5737   53.2901 H       562      M_A    0.0000
   3942 C         194.6415  172.2416   51.2502 C.3     563      M_A    0.0000
   3943 C         194.6534  170.7254   51.1006 C.3     563      M_A    0.0000
   3944 O         195.3262  170.3905   49.8877 O.3     563      M_A    0.0000
   3945 H         193.6037  172.5936   51.2454 H       563      M_A    0.0000
   3946 H         195.1551  172.7083   50.4019 H       563      M_A    0.0000
   3947 H         193.6110  170.3795   51.0591 H       563      M_A    0.0000
   3948 H         195.1513  170.2432   51.9525 H       563      M_A    0.0000
   3949 C         195.2679  169.0000   49.6518 C.3     564      M_A    0.0000
   3950 C         194.5559  168.6539   48.3500 C.3     564      M_A    0.0000
   3951 O         194.3343  167.2449   48.3102 O.3     564      M_A    0.0000
   3952 H         196.2933  168.6155   49.6121 H       564      M_A    0.0000
   3953 H         194.7640  168.5175   50.4970 H       564      M_A    0.0000
   3954 H         195.2057  168.9551   47.5164 H       564      M_A    0.0000
   3955 H         193.6001  169.1877   48.2625 H       564      M_A    0.0000
   3956 C         194.3024  166.7819   46.9771 C.3     565      M_A    0.0000
   3957 C         193.5930  167.7477   46.0362 C.3     565      M_A    0.0000
   3958 O         193.6182  167.2033   44.7175 O.3     565      M_A    0.0000
   3959 H         195.3350  166.6442   46.6370 H       565      M_A    0.0000
   3960 H         193.8108  165.8027   46.9532 H       565      M_A    0.0000
   3961 H         194.1351  168.7035   46.0577 H       565      M_A    0.0000
   3962 H         192.5556  167.9237   46.3508 H       565      M_A    0.0000
   3963 C         192.7016  167.8769   43.8816 C.3     566      M_A    0.0000
   3964 C         191.2509  167.5863   44.2452 C.3     566      M_A    0.0000
   3965 O         190.4263  168.6108   43.6917 O.3     566      M_A    0.0000
   3966 H         192.8840  168.9539   43.9702 H       566      M_A    0.0000
   3967 H         192.8940  167.5914   42.8411 H       566      M_A    0.0000
   3968 H         191.1678  167.5892   45.3412 H       566      M_A    0.0000
   3969 H         190.9334  166.6041   43.8702 H       566      M_A    0.0000
   3970 C         190.9433  169.8880   43.9983 C.3     567      M_A    0.0000
   3971 C         190.2076  170.5585   45.1519 C.3     567      M_A    0.0000
   3972 O         189.9669  171.9227   44.8097 O.3     567      M_A    0.0000
   3973 H         192.0002  169.7753   44.2651 H       567      M_A    0.0000
   3974 H         190.8916  170.5164   43.1020 H       567      M_A    0.0000
   3975 H         190.8490  170.5028   46.0426 H       567      M_A    0.0000
   3976 H         189.2578  170.0519   45.3692 H       567      M_A    0.0000
   3977 C         189.1172  172.0132   43.6861 C.3     568      M_A    0.0000
   3978 C         188.6399  173.4360   43.4230 C.3     568      M_A    0.0000
   3979 O         187.4791  173.6830   44.2151 O.3     568      M_A    0.0000
   3980 H         189.6677  171.6525   42.8098 H       568      M_A    0.0000
   3981 H         188.2585  171.3490   43.8361 H       568      M_A    0.0000
   3982 H         188.3905  173.5193   42.3559 H       568      M_A    0.0000
   3983 H         189.4209  174.1705   43.6609 H       568      M_A    0.0000
   3984 C         187.5388  174.9652   44.8024 C.3     569      M_A    0.0000
   3985 C         188.9068  175.2765   45.3966 C.3     569      M_A    0.0000
   3986 O         188.7897  176.4220   46.2392 O.3     569      M_A    0.0000
   3987 H         187.3067  175.7073   44.0301 H       569      M_A    0.0000
   3988 H         186.7661  175.0375   45.5762 H       569      M_A    0.0000
   3989 H         189.5971  175.4892   44.5683 H       569      M_A    0.0000
   3990 H         189.2967  174.4254   45.9708 H       569      M_A    0.0000
   3991 C         188.6617  177.5978   45.4686 C.3     570      M_A    0.0000
   3992 C         187.6636  178.5841   46.0623 C.3     570      M_A    0.0000
   3993 O         187.4509  179.6394   45.1259 O.3     570      M_A    0.0000
   3994 H         189.6454  178.0769   45.4079 H       570      M_A    0.0000
   3995 H         188.3615  177.3241   44.4507 H       570      M_A    0.0000
   3996 H         188.0940  178.9868   46.9899 H       570      M_A    0.0000
   3997 H         186.7099  178.0941   46.2999 H       570      M_A    0.0000
   3998 C         188.5923  180.4652   45.0365 C.3     571      M_A    0.0000
   3999 C         188.2776  181.8437   44.4689 C.3     571      M_A    0.0000
   4000 O         188.4933  181.8180   43.0587 O.3     571      M_A    0.0000
   4001 H         189.0125  180.5796   46.0421 H       571      M_A    0.0000
   4002 H         189.3447  179.9648   44.4164 H       571      M_A    0.0000
   4003 H         188.9570  182.5684   44.9391 H       571      M_A    0.0000
   4004 H         187.2422  182.1389   44.6858 H       571      M_A    0.0000
   4005 C         187.9837  182.9874   42.4541 C.3     572      M_A    0.0000
   4006 C         186.5969  182.7838   41.8568 C.3     572      M_A    0.0000
   4007 O         186.3675  183.7958   40.8775 O.3     572      M_A    0.0000
   4008 H         187.9334  183.7734   43.2161 H       572      M_A    0.0000
   4009 H         188.6832  183.3198   41.6787 H       572      M_A    0.0000
   4010 H         185.8607  182.8730   42.6679 H       572      M_A    0.0000
   4011 H         186.4998  181.7897   41.4003 H       572      M_A    0.0000
   4012 C         184.9855  183.9546   40.6377 C.3     573      M_A    0.0000
   4013 C         184.6923  184.5740   39.2769 C.3     573      M_A    0.0000
   4014 O         184.3744  185.9528   39.4606 O.3     573      M_A    0.0000
   4015 H         184.5125  182.9675   40.6911 H       573      M_A    0.0000
   4016 H         184.5558  184.5730   41.4340 H       573      M_A    0.0000
   4017 H         183.8327  184.0457   38.8408 H       573      M_A    0.0000
   4018 H         185.5496  184.4727   38.5980 H       573      M_A    0.0000
   4019 C         183.7738  186.4858   38.2997 C.3     574      M_A    0.0000
   4020 C         184.3794  187.8208   37.8845 C.3     574      M_A    0.0000
   4021 O         183.3665  188.8234   37.9518 O.3     574      M_A    0.0000
   4022 H         183.9035  185.7649   37.4846 H       574      M_A    0.0000
   4023 H         182.6981  186.5983   38.4763 H       574      M_A    0.0000
   4024 H         184.7424  187.7231   36.8517 H       574      M_A    0.0000
   4025 H         185.2240  188.0952   38.5306 H       574      M_A    0.0000
   4026 C         183.9288  190.1112   37.8175 C.3     575      M_A    0.0000
   4027 C         182.9297  191.2227   38.1136 C.3     575      M_A    0.0000
   4028 O         183.3357  192.4002   37.4174 O.3     575      M_A    0.0000
   4029 H         184.7710  190.1920   38.5140 H       575      M_A    0.0000
   4030 H         184.3253  190.2212   36.8018 H       575      M_A    0.0000
   4031 H         182.9366  191.4065   39.1972 H       575      M_A    0.0000
   4032 H         181.9132  190.9382   37.8107 H       575      M_A    0.0000
   4033 C         182.8227  193.5546   38.0473 C.3     576      M_A    0.0000
   4034 C         182.4767  194.6599   37.0574 C.3     576      M_A    0.0000
   4035 O         183.3802  195.7470   37.2511 O.3     576      M_A    0.0000
   4036 H         181.9187  193.2717   38.5983 H       576      M_A    0.0000
   4037 H         183.5567  193.9172   38.7760 H       576      M_A    0.0000
   4038 H         181.4471  194.9873   37.2593 H       576      M_A    0.0000
   4039 H         182.5358  194.3017   36.0209 H       576      M_A    0.0000
   4040 C         183.5368  196.4850   36.0580 C.3     577      M_A    0.0000
   4041 C         184.6676  197.5028   36.1403 C.3     577      M_A    0.0000
   4042 O         184.1018  198.8046   36.2847 O.3     577      M_A    0.0000
   4043 H         183.7469  195.7813   35.2445 H       577      M_A    0.0000
   4044 H         182.5918  196.9892   35.8259 H       577      M_A    0.0000
   4045 H         185.2448  197.4461   35.2067 H       577      M_A    0.0000
   4046 H         185.3383  197.2884   36.9830 H       577      M_A    0.0000
   4047 C         185.0611  199.8004   36.0000 C.3     578      M_A    0.0000
   4048 C         186.4077  199.5245   36.6572 C.3     578      M_A    0.0000
   4049 O         187.0664  200.7685   36.8904 O.3     578      M_A    0.0000
   4050 H         185.1957  199.8462   34.9134 H       578      M_A    0.0000
   4051 H         184.6730  200.7713   36.3284 H       578      M_A    0.0000
   4052 H         187.0025  198.9085   35.9682 H       578      M_A    0.0000
   4053 H         186.2872  198.9794   37.6029 H       578      M_A    0.0000
   4054 C         187.4968  201.3414   35.6742 C.3     579      M_A    0.0000
   4055 C         188.9670  201.0671   35.3829 C.3     579      M_A    0.0000
   4056 O         189.7542  202.0781   36.0108 O.3     579      M_A    0.0000
   4057 H         186.8876  200.9247   34.8642 H       579      M_A    0.0000
   4058 H         187.3138  202.4215   35.7063 H       579      M_A    0.0000
   4059 H         189.1103  201.1025   34.2938 H       579      M_A    0.0000
   4060 H         189.2687  200.0756   35.7461 H       579      M_A    0.0000
   4061 C         191.1259  201.7494   35.9549 C.3     580      M_A    0.0000
   4062 C         191.4174  200.3510   36.4848 C.3     580      M_A    0.0000
   4063 O         192.7972  200.0584   36.2691 O.3     580      M_A    0.0000
   4064 H         191.4512  201.8115   34.9103 H       580      M_A    0.0000
   4065 H         191.6928  202.4944   36.5248 H       580      M_A    0.0000
   4066 H         190.7916  199.6391   35.9285 H       580      M_A    0.0000
   4067 H         191.1783  200.2702   37.5536 H       580      M_A    0.0000
   4068 C         193.0572  199.8625   34.8955 C.3     581      M_A    0.0000
   4069 C         193.7800  198.5508   34.6153 C.3     581      M_A    0.0000
   4070 O         195.1300  198.8401   34.2554 O.3     581      M_A    0.0000
   4071 H         192.1003  199.8651   34.3615 H       581      M_A    0.0000
   4072 H         193.6488  200.7062   34.5224 H       581      M_A    0.0000
   4073 H         193.2679  198.0518   33.7806 H       581      M_A    0.0000
   4074 H         193.7578  197.8869   35.4899 H       581      M_A    0.0000
   4075 C         195.8429  197.6503   33.9934 C.3     582      M_A    0.0000
   4076 C         197.2902  197.7161   34.4651 C.3     582      M_A    0.0000
   4077 O         198.0812  196.8671   33.6348 O.3     582      M_A    0.0000
   4078 H         195.3358  196.8262   34.5078 H       582      M_A    0.0000
   4079 H         195.8060  197.4440   32.9177 H       582      M_A    0.0000
   4080 H         197.3253  197.3622   35.5051 H       582      M_A    0.0000
   4081 H         197.6765  198.7435   34.4292 H       582      M_A    0.0000
   4082 C         199.1093  196.2540   34.3830 C.3     583      M_A    0.0000
   4083 C         200.4559  196.9449   34.2078 C.3     583      M_A    0.0000
   4084 O         201.4046  195.9866   33.7415 O.3     583      M_A    0.0000
   4085 H         198.8271  196.2828   35.4415 H       583      M_A    0.0000
   4086 H         199.1842  195.2014   34.0871 H       583      M_A    0.0000
   4087 H         200.7676  197.3356   35.1867 H       583      M_A    0.0000
   4088 H         200.3872  197.7817   33.4999 H       583      M_A    0.0000
   4089 C         202.7227  196.4313   33.9813 C.3     584      M_A    0.0000
   4090 C         202.9760  197.8352   33.4461 C.3     584      M_A    0.0000
   4091 O         204.3820  198.0163   33.2843 O.3     584      M_A    0.0000
   4092 H         202.8955  196.4242   35.0635 H       584      M_A    0.0000
   4093 H         203.4245  195.7224   33.5276 H       584      M_A    0.0000
   4094 H         202.5872  198.5545   34.1805 H       584      M_A    0.0000
   4095 H         202.4632  197.9969   32.4885 H       584      M_A    0.0000
   4096 C         205.0778  197.5722   34.4294 C.3     585      M_A    0.0000
   4097 C         206.2438  198.4810   34.7982 C.3     585      M_A    0.0000
   4098 O         207.3915  198.0783   34.0522 O.3     585      M_A    0.0000
   4099 H         204.3723  197.5371   35.2673 H       585      M_A    0.0000
   4100 H         205.4362  196.5516   34.2533 H       585      M_A    0.0000
   4101 H         206.4368  198.3669   35.8741 H       585      M_A    0.0000
   4102 H         206.0111  199.5342   34.5915 H       585      M_A    0.0000
   4103 C         207.6191  198.9585   32.9723 C.3     586      M_A    0.0000
   4104 C         209.0811  198.9992   32.5452 C.3     586      M_A    0.0000
   4105 O         209.4342  200.3499   32.2504 O.3     586      M_A    0.0000
   4106 H         207.0078  198.6273   32.1252 H       586      M_A    0.0000
   4107 H         207.2807  199.9618   33.2547 H       586      M_A    0.0000
   4108 H         209.1900  198.3781   31.6451 H       586      M_A    0.0000
   4109 H         209.7384  198.6012   33.3298 H       586      M_A    0.0000
   4110 C         210.6513  200.4036   31.5374 C.3     587      M_A    0.0000
   4111 C         211.7408  199.5457   32.1686 C.3     587      M_A    0.0000
   4112 O         212.9796  199.8292   31.5200 O.3     587      M_A    0.0000
   4113 H         210.4662  200.0527   30.5159 H       587      M_A    0.0000
   4114 H         210.9810  201.4470   31.4762 H       587      M_A    0.0000
   4115 H         211.4720  198.4905   32.0192 H       587      M_A    0.0000
   4116 H         211.8276  199.7382   33.2463 H       587      M_A    0.0000
   4117 C         213.8109  198.6883   31.5107 C.3     588      M_A    0.0000
   4118 C         214.1414  198.1902   32.9121 C.3     588      M_A    0.0000
   4119 O         215.4534  197.6294   32.9008 O.3     588      M_A    0.0000
   4120 H         213.2957  197.8930   30.9603 H       588      M_A    0.0000
   4121 H         214.7328  198.9254   30.9675 H       588      M_A    0.0000
   4122 H         213.4061  197.4189   33.1811 H       588      M_A    0.0000
   4123 H         214.0858  199.0026   33.6490 H       588      M_A    0.0000
   4124 C         216.2679  198.2447   33.8758 C.3     589      M_A    0.0000
   4125 C         217.7338  198.3042   33.4649 C.3     589      M_A    0.0000
   4126 O         218.5017  197.5453   34.3978 O.3     589      M_A    0.0000
   4127 H         215.8996  199.2642   34.0367 H       589      M_A    0.0000
   4128 H         216.1630  197.7000   34.8210 H       589      M_A    0.0000
   4129 H         218.0507  199.3564   33.4863 H       589      M_A    0.0000
   4130 H         217.8810  197.9123   32.4496 H       589      M_A    0.0000
   4131 C         219.6492  197.0054   33.7779 C.3     590      M_A    0.0000
   4132 C         220.9362  197.6836   34.2308 C.3     590      M_A    0.0000
   4133 O         221.6090  198.2007   33.0837 O.3     590      M_A    0.0000
   4134 H         219.7014  195.9385   34.0227 H       590      M_A    0.0000
   4135 H         219.5395  197.0923   32.6909 H       590      M_A    0.0000
   4136 H         221.5632  196.9280   34.7246 H       590      M_A    0.0000
   4137 H         220.7322  198.4932   34.9442 H       590      M_A    0.0000
   4138 C         222.9922  198.3324   33.3333 C.3     591      M_A    0.0000
   4139 C         223.3256  199.5695   34.1578 C.3     591      M_A    0.0000
   4140 O         224.2706  200.3588   33.4369 O.3     591      M_A    0.0000
   4141 H         223.3297  197.4406   33.8733 H       591      M_A    0.0000
   4142 H         223.5243  198.3628   32.3757 H       591      M_A    0.0000
   4143 H         223.7634  199.2363   35.1092 H       591      M_A    0.0000
   4144 H         222.4260  200.1620   34.3720 H       591      M_A    0.0000
   4145 C         224.4227  201.6274   34.0370 C.3     592      M_A    0.0000
   4146 C         225.8828  202.0378   34.1823 C.3     592      M_A    0.0000
   4147 O         226.1195  202.4145   35.5380 O.3     592      M_A    0.0000
   4148 H         223.9036  202.3655   33.4151 H       592      M_A    0.0000
   4149 H         223.9346  201.6168   35.0182 H       592      M_A    0.0000
   4150 H         226.0630  202.8947   33.5180 H       592      M_A    0.0000
   4151 H         226.5585  201.2211   33.8952 H       592      M_A    0.0000
   4152 C         227.3875  201.9662   35.9667 C.3     593      M_A    0.0000
   4153 C         228.1766  203.0457   36.6971 C.3     593      M_A    0.0000
   4154 O         229.5503  202.9381   36.3265 O.3     593      M_A    0.0000
   4155 H         227.2406  201.1134   36.6391 H       593      M_A    0.0000
   4156 H         227.9511  201.6107   35.0966 H       593      M_A    0.0000
   4157 H         228.0652  202.8763   37.7773 H       593      M_A    0.0000
   4158 H         227.7995  204.0488   36.4568 H       593      M_A    0.0000
   4159 C         230.3741  203.5925   37.2676 C.3     594      M_A    0.0000
   4160 C         230.3944  205.1045   37.0803 C.3     594      M_A    0.0000
   4161 O         231.7359  205.5154   36.8208 O.3     594      M_A    0.0000
   4162 H         229.9993  203.3612   38.2711 H       594      M_A    0.0000
   4163 H         231.3903  203.1893   37.1908 H       594      M_A    0.0000
   4164 H         230.0335  205.5672   38.0095 H       594      M_A    0.0000
   4165 H         229.7397  205.4142   36.2547 H       594      M_A    0.0000
   4166 C         231.9229  206.8671   37.1820 C.3     595      M_A    0.0000
   4167 C         232.4541  207.7147   36.0328 C.3     595      M_A    0.0000
   4168 O         233.8233  208.0247   36.2877 O.3     595      M_A    0.0000
   4169 H         230.9582  207.2714   37.5089 H       595      M_A    0.0000
   4170 H         232.6098  206.9149   38.0347 H       595      M_A    0.0000
   4171 H         231.8618  208.6395   35.9901 H       595      M_A    0.0000
   4172 H         232.3595  207.1908   35.0722 H       595      M_A    0.0000
   4173 C         234.6483  206.9160   35.9999 C.3     596      M_A    0.0000
   4174 C         236.1178  207.2956   35.8664 C.3     596      M_A    0.0000
   4175 O         236.6684  206.6062   34.7450 O.3     596      M_A    0.0000
   4176 H         234.5391  206.1875   36.8113 H       596      M_A    0.0000
   4177 H         234.2961  206.4415   35.0770 H       596      M_A    0.0000
   4178 H         236.6338  206.9873   36.7865 H       596      M_A    0.0000
   4179 H         236.2412  208.3795   35.7394 H       596      M_A    0.0000
   4180 C         238.0781  206.5844   34.8152 C.3     597      M_A    0.0000
   4181 C         238.6877  207.9806   34.8303 C.3     597      M_A    0.0000
   4182 O         239.9501  207.9359   34.1668 O.3     597      M_A    0.0000
   4183 H         238.3678  206.0574   35.7314 H       597      M_A    0.0000
   4184 H         238.4670  206.0123   33.9652 H       597      M_A    0.0000
   4185 H         238.8253  208.2804   35.8787 H       597      M_A    0.0000
   4186 H         238.0299  208.7098   34.3386 H       597      M_A    0.0000
   4187 C         240.7005  209.0993   34.4424 C.3     598      M_A    0.0000
   4188 C         241.5079  209.5764   33.2415 C.3     598      M_A    0.0000
   4189 O         242.7122  210.1806   33.7107 O.3     598      M_A    0.0000
   4190 H         240.0064  209.8917   34.7446 H       598      M_A    0.0000
   4191 H         241.3667  208.8997   35.2894 H       598      M_A    0.0000
   4192 H         240.9039  210.3165   32.6979 H       598      M_A    0.0000
   4193 H         241.7433  208.7461   32.5623 H       598      M_A    0.0000
   4194 C         243.7828  209.9086   32.8317 C.3     599      M_A    0.0000
   4195 C         245.1379  209.9435   33.5272 C.3     599      M_A    0.0000
   4196 O         246.1557  210.0954   32.5388 O.3     599      M_A    0.0000
   4197 H         243.6275  208.9135   32.3997 H       599      M_A    0.0000
   4198 H         243.7613  210.6347   32.0110 H       599      M_A    0.0000
   4199 H         245.2715  208.9914   34.0598 H       599      M_A    0.0000
   4200 H         245.1937  210.7649   34.2540 H       599      M_A    0.0000
   4201 C         247.3915  210.4176   33.1400 C.3     600      M_A    0.0000
   4202 C         248.3712  211.0570   32.1639 C.3     600      M_A    0.0000
   4203 O         249.5204  211.4928   32.8885 O.3     600      M_A    0.0000
   4204 H         247.2008  211.1146   33.9639 H       600      M_A    0.0000
   4205 H         247.8260  209.5072   33.5682 H       600      M_A    0.0000
   4206 H         247.8730  211.9185   31.6973 H       600      M_A    0.0000
   4207 H         248.6683  210.3522   31.3758 H       600      M_A    0.0000
   4208 C         250.3152  212.3493   32.0964 C.3     601      M_A    0.0000
   4209 C         251.4500  212.9931   32.8832 C.3     601      M_A    0.0000
   4210 O         252.0069  214.0492   32.1020 O.3     601      M_A    0.0000
   4211 H         250.7383  211.7614   31.2740 H       601      M_A    0.0000
   4212 H         249.6746  213.1226   31.6573 H       601      M_A    0.0000
   4213 H         252.2121  212.2240   33.0719 H       601      M_A    0.0000
   4214 H         251.0972  213.3838   33.8471 H       601      M_A    0.0000
   4215 C         253.2557  214.4509   32.6232 C.3     602      M_A    0.0000
   4216 C         254.2533  214.8275   31.5350 C.3     602      M_A    0.0000
   4217 O         255.4918  214.1716   31.8027 O.3     602      M_A    0.0000
   4218 H         253.0929  215.3168   33.2749 H       602      M_A    0.0000
   4219 H         253.6596  213.6408   33.2411 H       602      M_A    0.0000
   4220 H         254.3923  215.9174   31.5634 H       602      M_A    0.0000
   4221 H         253.8853  214.5449   30.5396 H       602      M_A    0.0000
   4222 C         256.3851  214.3306   30.7212 C.3     603      M_A    0.0000
   4223 C         257.6772  213.5445   30.9056 C.3     603      M_A    0.0000
   4224 O         258.7813  214.4208   30.6850 O.3     603      M_A    0.0000
   4225 H         255.8840  213.9870   29.8092 H       603      M_A    0.0000
   4226 H         256.6067  215.3967   30.5976 H       603      M_A    0.0000
   4227 H         257.6895  212.7320   30.1655 H       603      M_A    0.0000
   4228 H         257.7392  213.1066   31.9108 H       603      M_A    0.0000
   4229 C         259.9612  213.8891   31.2487 C.3     604      M_A    0.0000
   4230 C         261.1122  214.8874   31.2535 C.3     604      M_A    0.0000
   4231 O         262.3426  214.1674   31.1940 O.3     604      M_A    0.0000
   4232 H         259.7436  213.5888   32.2799 H       604      M_A    0.0000
   4233 H         260.2455  212.9884   30.6929 H       604      M_A    0.0000
   4234 H         261.0593  215.4631   32.1883 H       604      M_A    0.0000
   4235 H         261.0420  215.5831   30.4067 H       604      M_A    0.0000
   4236 C         263.3254  214.9139   30.5087 C.3     605      M_A    0.0000
   4237 C         264.6177  215.0540   31.3035 C.3     605      M_A    0.0000
   4238 O         265.2971  216.2309   30.8686 O.3     605      M_A    0.0000
   4239 H         263.5412  214.4082   29.5608 H       605      M_A    0.0000
   4240 H         262.9186  215.9038   30.2727 H       605      M_A    0.0000
   4241 H         265.2371  214.1682   31.1046 H       605      M_A    0.0000
   4242 H         264.4198  215.1108   32.3823 H       605      M_A    0.0000
   4243 C         266.6852  215.9966   30.7647 C.3     606      M_A    0.0000
   4244 C         267.5175  217.2103   31.1592 C.3     606      M_A    0.0000
   4245 O         268.5076  217.4317   30.1560 O.3     606      M_A    0.0000
   4246 H         266.9415  215.1578   31.4217 H       606      M_A    0.0000
   4247 H         266.9186  215.6973   29.7365 H       606      M_A    0.0000
   4248 H         268.0010  216.9928   32.1219 H       606      M_A    0.0000
   4249 H         266.8910  218.1050   31.2735 H       606      M_A    0.0000
   4250 C         269.7350  217.8114   30.7410 C.3     607      M_A    0.0000
   4251 C         270.6683  218.5011   29.7538 C.3     607      M_A    0.0000
   4252 O         271.9799  217.9617   29.9108 O.3     607      M_A    0.0000
   4253 H         269.5225  218.4954   31.5704 H       607      M_A    0.0000
   4254 H         270.2191  216.9216   31.1592 H       607      M_A    0.0000
   4255 H         270.6745  219.5755   29.9851 H       607      M_A    0.0000
   4256 H         270.3271  218.3653   28.7187 H       607      M_A    0.0000
   4257 C         272.0069  216.5992   29.5428 C.3     608      M_A    0.0000
   4258 C         273.4004  215.9911   29.6411 C.3     608      M_A    0.0000
   4259 O         274.0872  216.2196   28.4115 O.3     608      M_A    0.0000
   4260 H         271.3294  216.0509   30.2072 H       608      M_A    0.0000
   4261 H         271.6234  216.4999   28.5209 H       608      M_A    0.0000
   4262 H         273.2890  214.9113   29.8133 H       608      M_A    0.0000
   4263 H         273.9682  216.4244   30.4753 H       608      M_A    0.0000
   4264 C         274.5070  217.5640   28.3163 C.3     609      M_A    0.0000
   4265 C         276.0087  217.6967   28.0960 C.3     609      M_A    0.0000
   4266 O         276.6244  218.0413   29.3362 O.3     609      M_A    0.0000
   4267 H         273.9794  218.0294   27.4762 H       609      M_A    0.0000
   4268 H         274.2115  218.0935   29.2292 H       609      M_A    0.0000
   4269 H         276.1752  218.4957   27.3599 H       609      M_A    0.0000
   4270 H         276.4402  216.7644   27.7080 H       609      M_A    0.0000
   4271 C         277.7711  217.2495   29.5614 C.3     610      M_A    0.0000
   4272 C         279.0625  217.9639   29.1829 C.3     610      M_A    0.0000
   4273 O         280.0012  216.9958   28.7164 O.3     610      M_A    0.0000
   4274 H         277.8046  216.9893   30.6254 H       610      M_A    0.0000
   4275 H         277.6756  216.3170   28.9937 H       610      M_A    0.0000
   4276 H         279.4522  218.4614   30.0821 H       610      M_A    0.0000
   4277 H         278.8879  218.7224   28.4081 H       610      M_A    0.0000
   4278 C         281.3219  217.3996   29.0084 C.3     611      M_A    0.0000
   4279 C         281.5629  218.8759   28.7187 C.3     611      M_A    0.0000
   4280 O         282.5409  218.9857   27.6856 O.3     611      M_A    0.0000
   4281 H         281.5125  217.2075   30.0703 H       611      M_A    0.0000
   4282 H         282.0180  216.7830   28.4285 H       611      M_A    0.0000
   4283 H         281.9352  219.3469   29.6393 H       611      M_A    0.0000
   4284 H         280.6360  219.3805   28.4145 H       611      M_A    0.0000
   4285 C         282.5635  220.2942   27.1564 C.3     612      M_A    0.0000
   4286 C         283.8863  221.0073   27.4077 C.3     612      M_A    0.0000
   4287 O         283.7297  222.3886   27.0863 O.3     612      M_A    0.0000
   4288 H         282.3909  220.2303   26.0761 H       612      M_A    0.0000
   4289 H         281.7373  220.8676   27.5920 H       612      M_A    0.0000
   4290 H         284.6461  220.5542   26.7556 H       612      M_A    0.0000
   4291 H         284.2076  220.8981   28.4522 H       612      M_A    0.0000
   4292 C         284.9868  223.0211   26.9756 C.3     613      M_A    0.0000
   4293 C         284.8782  224.5400   26.9237 C.3     613      M_A    0.0000
   4294 O         284.9843  224.9601   25.5643 O.3     613      M_A    0.0000
   4295 H         285.5924  222.7349   27.8430 H       613      M_A    0.0000
   4296 H         285.4938  222.6484   26.0783 H       613      M_A    0.0000
   4297 H         285.7060  224.9605   27.5119 H       613      M_A    0.0000
   4298 H         283.9288  224.8881   27.3521 H       613      M_A    0.0000
   4299 C         283.7885  224.6914   24.8638 C.3     614      M_A    0.0000
   4300 C         283.3417  225.8595   23.9936 C.3     614      M_A    0.0000
   4301 O         282.5480  226.7424   24.7851 O.3     614      M_A    0.0000
   4302 H         283.9530  223.8140   24.2283 H       614      M_A    0.0000
   4303 H         283.0039  224.4371   25.5855 H       614      M_A    0.0000
   4304 H         282.7420  225.4567   23.1653 H       614      M_A    0.0000
   4305 H         284.2021  226.3994   23.5759 H       614      M_A    0.0000
   4306 C         283.1641  228.0081   24.8913 C.3     615      M_A    0.0000
   4307 C         282.4570  229.0770   24.0674 C.3     615      M_A    0.0000
   4308 O         283.4044  230.0837   23.7142 O.3     615      M_A    0.0000
   4309 H         283.1566  228.3058   25.9459 H       615      M_A    0.0000
   4310 H         284.2105  227.9209   24.5774 H       615      M_A    0.0000
   4311 H         281.6604  229.5124   24.6870 H       615      M_A    0.0000
   4312 H         282.0056  228.6506   23.1615 H       615      M_A    0.0000
   4313 C         284.2567  229.6283   22.6853 C.3     616      M_A    0.0000
   4314 C         285.6906  230.1162   22.8505 C.3     616      M_A    0.0000
   4315 O         285.8388  231.3481   22.1460 O.3     616      M_A    0.0000
   4316 H         284.2484  228.5325   22.6928 H       616      M_A    0.0000
   4317 H         283.8553  229.9574   21.7201 H       616      M_A    0.0000
   4318 H         286.3599  229.3566   22.4227 H       616      M_A    0.0000
   4319 H         285.9465  230.2552   23.9095 H       616      M_A    0.0000
   4320 C         284.6528  231.6728   21.4529 C.3     617      M_A    0.0000
   4321 C         284.6871  233.0728   20.8527 C.3     617      M_A    0.0000
   4322 O         284.1969  233.9982   21.8219 O.3     617      M_A    0.0000
   4323 H         284.5146  230.9417   20.6483 H       617      M_A    0.0000
   4324 H         283.8034  231.5773   22.1388 H       617      M_A    0.0000
   4325 H         284.0375  233.0788   19.9662 H       617      M_A    0.0000
   4326 H         285.7041  233.3521   20.5465 H       617      M_A    0.0000
   4327 C         285.2256  234.8652   22.2494 C.3     618      M_A    0.0000
   4328 C         286.4276  234.1180   22.8135 C.3     618      M_A    0.0000
   4329 O         287.3595  235.0700   23.3245 O.3     618      M_A    0.0000
   4330 H         285.5476  235.4650   21.3908 H       618      M_A    0.0000
   4331 H         284.8212  235.5517   23.0020 H       618      M_A    0.0000
   4332 H         286.8868  233.5455   21.9954 H       618      M_A    0.0000
   4333 H         286.1287  233.4205   23.6074 H       618      M_A    0.0000
   4334 C         288.2352  234.4639   24.2511 C.3     619      M_A    0.0000
   4335 C         287.5436  234.0909   25.5564 C.3     619      M_A    0.0000
   4336 O         288.2992  233.0643   26.1975 O.3     619      M_A    0.0000
   4337 H         288.6464  233.5576   23.7922 H       619      M_A    0.0000
   4338 H         289.0705  235.1454   24.4482 H       619      M_A    0.0000
   4339 H         286.5374  233.7206   25.3146 H       619      M_A    0.0000
   4340 H         287.4491  234.9596   26.2216 H       619      M_A    0.0000
   4341 C         287.6158  231.8305   26.1388 C.3     620      M_A    0.0000
   4342 C         288.5349  230.6652   25.7940 C.3     620      M_A    0.0000
   4343 O         288.1109  229.5161   26.5259 O.3     620      M_A    0.0000
   4344 H         287.1556  231.6465   27.1161 H       620      M_A    0.0000
   4345 H         286.8096  231.9062   25.4003 H       620      M_A    0.0000
   4346 H         289.5577  230.9404   26.0873 H       620      M_A    0.0000
   4347 H         288.5225  230.4509   24.7170 H       620      M_A    0.0000
   4348 C         287.3631  228.6473   25.7022 C.3     621      M_A    0.0000
   4349 C         285.8610  228.7758   25.9228 C.3     621      M_A    0.0000
   4350 O         285.5060  228.0416   27.0936 O.3     621      M_A    0.0000
   4351 H         287.5928  228.8833   24.6570 H       621      M_A    0.0000
   4352 H         287.6848  227.6165   25.8890 H       621      M_A    0.0000
   4353 H         285.3510  228.3530   25.0459 H       621      M_A    0.0000
   4354 H         285.5611  229.8266   26.0324 H       621      M_A    0.0000
   4355 C         284.3150  227.3134   26.8845 C.3     622      M_A    0.0000
   4356 C         283.0951  228.2132   26.7313 C.3     622      M_A    0.0000
   4357 O         282.2458  228.0293   27.8630 O.3     622      M_A    0.0000
   4358 H         284.4345  226.7144   25.9746 H       622      M_A    0.0000
   4359 H         284.1704  226.6213   27.7219 H       622      M_A    0.0000
   4360 H         282.5669  227.9169   25.8140 H       622      M_A    0.0000
   4361 H         283.3847  229.2691   26.6458 H       622      M_A    0.0000
   4362 C         281.3765  226.9354   27.6626 C.3     623      M_A    0.0000
   4363 C         280.9088  226.3089   28.9703 C.3     623      M_A    0.0000
   4364 O         280.6716  224.9188   28.7526 O.3     623      M_A    0.0000
   4365 H         280.5034  227.2892   27.1028 H       623      M_A    0.0000
   4366 H         281.8855  226.1857   27.0462 H       623      M_A    0.0000
   4367 H         279.9758  226.8059   29.2711 H       623      M_A    0.0000
   4368 H         281.6526  226.4433   29.7670 H       623      M_A    0.0000
   4369 C         281.4996  224.4266   27.7207 C.3     624      M_A    0.0000
   4370 C         280.7710  223.4645   26.7907 C.3     624      M_A    0.0000
   4371 O         281.2173  223.6933   25.4549 O.3     624      M_A    0.0000
   4372 H         281.8653  225.2797   27.1381 H       624      M_A    0.0000
   4373 H         282.3691  223.9323   28.1686 H       624      M_A    0.0000
   4374 H         279.6937  223.6685   26.8663 H       624      M_A    0.0000
   4375 H         280.9527  222.4192   27.0742 H       624      M_A    0.0000
   4376 C         282.6155  223.8839   25.4212 C.3     625      M_A    0.0000
   4377 C         283.2463  223.3826   24.1281 C.3     625      M_A    0.0000
   4378 O         283.2815  221.9566   24.1590 O.3     625      M_A    0.0000
   4379 H         282.8182  224.9558   25.5263 H       625      M_A    0.0000
   4380 H         283.0640  223.3746   26.2817 H       625      M_A    0.0000
   4381 H         284.2687  223.7820   24.0712 H       625      M_A    0.0000
   4382 H         282.6843  223.7262   23.2493 H       625      M_A    0.0000
   4383 C         281.9966  221.4202   23.9271 C.3     626      M_A    0.0000
   4384 C         281.5983  220.3783   24.9651 C.3     626      M_A    0.0000
   4385 O         280.9937  219.2730   24.2953 O.3     626      M_A    0.0000
   4386 H         281.2725  222.2425   23.9493 H       626      M_A    0.0000
   4387 H         281.9710  220.9813   22.9233 H       626      M_A    0.0000
   4388 H         280.8761  220.8413   25.6521 H       626      M_A    0.0000
   4389 H         282.4672  220.0379   25.5441 H       626      M_A    0.0000
   4390 C         280.5513  218.3072   25.2248 C.3     627      M_A    0.0000
   4391 C         281.6984  217.5190   25.8447 C.3     627      M_A    0.0000
   4392 O         281.4368  216.1258   25.6822 O.3     627      M_A    0.0000
   4393 H         280.0007  218.8230   26.0196 H       627      M_A    0.0000
   4394 H         279.8532  217.6265   24.7243 H       627      M_A    0.0000
   4395 H         281.7447  217.7697   26.9138 H       627      M_A    0.0000
   4396 H         282.6591  217.7782   25.3799 H       627      M_A    0.0000
   4397 C         282.2284  215.3625   26.5672 C.3     628      M_A    0.0000
   4398 C         281.6120  214.0062   26.8864 C.3     628      M_A    0.0000
   4399 O         281.9698  213.6433   28.2191 O.3     628      M_A    0.0000
   4400 H         283.2100  215.2096   26.1045 H       628      M_A    0.0000
   4401 H         282.3809  215.9340   27.4899 H       628      M_A    0.0000
   4402 H         282.0181  213.2724   26.1760 H       628      M_A    0.0000
   4403 H         280.5189  214.0292   26.7833 H       628      M_A    0.0000
   4404 C         281.6696  212.2860   28.4648 C.3     629      M_A    0.0000
   4405 C         281.4729  211.9861   29.9456 C.3     629      M_A    0.0000
   4406 O         281.6235  210.5823   30.1520 O.3     629      M_A    0.0000
   4407 H         280.7505  212.0346   27.9235 H       629      M_A    0.0000
   4408 H         282.4758  211.6650   28.0581 H       629      M_A    0.0000
   4409 H         280.4569  212.2993   30.2241 H       629      M_A    0.0000
   4410 H         282.1937  212.5368   30.5646 H       629      M_A    0.0000
   4411 C         281.7585  210.2914   31.5267 C.3     630      M_A    0.0000
   4412 C         281.9911  208.8095   31.7940 C.3     630      M_A    0.0000
   4413 O         280.7641  208.2247   32.2278 O.3     630      M_A    0.0000
   4414 H         282.6082  210.8631   31.9165 H       630      M_A    0.0000
   4415 H         280.8590  210.6326   32.0517 H       630      M_A    0.0000
   4416 H         282.7490  208.7214   32.5850 H       630      M_A    0.0000
   4417 H         282.3570  208.2936   30.8962 H       630      M_A    0.0000
   4418 C         281.0081  207.0814   33.0191 C.3     631      M_A    0.0000
   4419 C         280.9733  205.7896   32.2121 C.3     631      M_A    0.0000
   4420 O         280.2508  204.8069   32.9524 O.3     631      M_A    0.0000
   4421 H         281.9961  207.1885   33.4810 H       631      M_A    0.0000
   4422 H         280.2664  207.0427   33.8250 H       631      M_A    0.0000
   4423 H         282.0094  205.4565   32.0584 H       631      M_A    0.0000
   4424 H         280.5032  205.9428   31.2315 H       631      M_A    0.0000
   4425 C         280.4305  203.5251   32.3890 C.3     632      M_A    0.0000
   4426 C         279.3914  202.5202   32.8706 C.3     632      M_A    0.0000
   4427 O         280.0625  201.3314   33.2856 O.3     632      M_A    0.0000
   4428 H         280.3616  203.6168   31.2991 H       632      M_A    0.0000
   4429 H         281.4388  203.1697   32.6299 H       632      M_A    0.0000
   4430 H         278.7188  202.2974   32.0305 H       632      M_A    0.0000
   4431 H         278.7970  202.9258   33.7002 H       632      M_A    0.0000
   4432 C         279.1868  200.2249   33.2490 C.3     633      M_A    0.0000
   4433 C         278.9937  199.5826   34.6170 C.3     633      M_A    0.0000
   4434 O         278.7040  198.1973   34.4352 O.3     633      M_A    0.0000
   4435 H         278.2159  200.5682   32.8744 H       633      M_A    0.0000
   4436 H         279.5761  199.4876   32.5377 H       633      M_A    0.0000
   4437 H         278.1475  200.0811   35.1105 H       633      M_A    0.0000
   4438 H         279.8872  199.7009   35.2444 H       633      M_A    0.0000
   4439 C         279.0087  197.4659   35.6035 C.3     634      M_A    0.0000
   4440 C         278.8750  195.9610   35.4065 C.3     634      M_A    0.0000
   4441 O         277.9461  195.4549   36.3641 O.3     634      M_A    0.0000
   4442 H         280.0391  197.6986   35.8949 H       634      M_A    0.0000
   4443 H         278.3503  197.8001   36.4133 H       634      M_A    0.0000
   4444 H         279.8634  195.5078   35.5669 H       634      M_A    0.0000
   4445 H         278.5370  195.7189   34.3900 H       634      M_A    0.0000
   4446 C         277.2886  194.3098   35.8651 C.3     635      M_A    0.0000
   4447 C         277.2079  193.1849   36.8896 C.3     635      M_A    0.0000
   4448 O         277.1032  191.9418   36.1969 O.3     635      M_A    0.0000
   4449 H         276.2735  194.5985   35.5698 H       635      M_A    0.0000
   4450 H         277.8111  193.9640   34.9659 H       635      M_A    0.0000
   4451 H         276.3116  193.3484   37.5043 H       635      M_A    0.0000
   4452 H         278.0887  193.1771   37.5455 H       635      M_A    0.0000
   4453 C         276.2967  191.0349   36.9178 C.3     636      M_A    0.0000
   4454 C         277.1042  189.9186   37.5682 C.3     636      M_A    0.0000
   4455 O         276.2689  188.7701   37.7061 O.3     636      M_A    0.0000
   4456 H         275.7652  191.5930   37.6969 H       636      M_A    0.0000
   4457 H         275.5459  190.6119   36.2407 H       636      M_A    0.0000
   4458 H         277.4297  190.2668   38.5586 H       636      M_A    0.0000
   4459 H         277.9927  189.6684   36.9730 H       636      M_A    0.0000
   4460 C         276.6934  187.9710   38.7895 C.3     637      M_A    0.0000
   4461 C         276.5453  186.4799   38.5138 C.3     637      M_A    0.0000
   4462 O         275.7088  185.9095   39.5192 O.3     637      M_A    0.0000
   4463 H         277.7474  188.1952   38.9888 H       637      M_A    0.0000
   4464 H         276.1199  188.2484   39.6812 H       637      M_A    0.0000
   4465 H         277.5451  186.0253   38.5554 H       637      M_A    0.0000
   4466 H         276.1163  186.2975   37.5194 H       637      M_A    0.0000
   4467 C         275.4834  184.5398   39.2632 C.3     638      M_A    0.0000
   4468 C         274.5720  183.8906   40.2973 C.3     638      M_A    0.0000
   4469 O         274.7145  182.4738   40.2076 O.3     638      M_A    0.0000
   4470 H         275.0240  184.4470   38.2726 H       638      M_A    0.0000
   4471 H         276.4483  184.0210   39.2324 H       638      M_A    0.0000
   4472 H         273.5367  184.1788   40.0669 H       638      M_A    0.0000
   4473 H         274.8145  184.2295   41.3134 H       638      M_A    0.0000
   4474 C         275.9126  182.0524   40.8238 C.3     639      M_A    0.0000
   4475 C         276.1394  180.5506   40.7026 C.3     639      M_A    0.0000
   4476 O         275.5244  179.9037   41.8158 O.3     639      M_A    0.0000
   4477 H         276.7469  182.5799   40.3480 H       639      M_A    0.0000
   4478 H         275.8914  182.3466   41.8793 H       639      M_A    0.0000
   4479 H         277.2232  180.3682   40.7145 H       639      M_A    0.0000
   4480 H         275.7262  180.1580   39.7639 H       639      M_A    0.0000
   4481 C         274.1725  179.6081   41.5373 C.3     640      M_A    0.0000
   4482 C         273.7504  178.2400   42.0585 C.3     640      M_A    0.0000
   4483 O         273.1880  177.4933   40.9806 O.3     640      M_A    0.0000
   4484 H         273.5494  180.3778   42.0066 H       640      M_A    0.0000
   4485 H         274.0125  179.6649   40.4546 H       640      M_A    0.0000
   4486 H         272.9959  178.3929   42.8429 H       640      M_A    0.0000
   4487 H         274.6016  177.6959   42.4893 H       640      M_A    0.0000
   4488 C         272.1465  176.6590   41.4410 C.3     641      M_A    0.0000
   4489 C         272.4958  175.9456   42.7411 C.3     641      M_A    0.0000
   4490 O         272.4068  174.5375   42.5285 O.3     641      M_A    0.0000
   4491 H         271.2563  177.2779   41.6003 H       641      M_A    0.0000
   4492 H         271.9075  175.9267   40.6614 H       641      M_A    0.0000
   4493 H         271.7696  176.2562   43.5053 H       641      M_A    0.0000
   4494 H         273.5045  176.2112   43.0847 H       641      M_A    0.0000
   4495 C         272.0075  173.8782   43.7111 C.3     642      M_A    0.0000
   4496 C         272.6328  172.4961   43.8535 C.3     642      M_A    0.0000
   4497 O         271.5889  171.5341   43.9975 O.3     642      M_A    0.0000
   4498 H         272.3059  174.4959   44.5657 H       642      M_A    0.0000
   4499 H         270.9143  173.8004   43.7223 H       642      M_A    0.0000
   4500 H         273.2657  172.5001   44.7520 H       642      M_A    0.0000
   4501 H         273.2563  172.2475   42.9843 H       642      M_A    0.0000
   4502 C         272.1022  170.3073   44.4707 C.3     643      M_A    0.0000
   4503 C         271.3803  169.1017   43.8817 C.3     643      M_A    0.0000
   4504 O         271.4069  168.0413   44.8360 O.3     643      M_A    0.0000
   4505 H         273.1639  170.2541   44.2043 H       643      M_A    0.0000
   4506 H         272.0323  170.2914   45.5643 H       643      M_A    0.0000
   4507 H         271.9130  168.7986   42.9693 H       643      M_A    0.0000
   4508 H         270.3423  169.3458   43.6192 H       643      M_A    0.0000
   4509 C         270.5820  168.3432   45.9410 C.3     644      M_A    0.0000
   4510 C         270.4890  167.1937   46.9367 C.3     644      M_A    0.0000
   4511 O         269.4308  166.3248   46.5349 O.3     644      M_A    0.0000
   4512 H         270.9952  169.2228   46.4474 H       644      M_A    0.0000
   4513 H         269.5830  168.6080   45.5763 H       644      M_A    0.0000
   4514 H         270.2704  167.6180   47.9267 H       644      M_A    0.0000
   4515 H         271.4332  166.6357   46.9930 H       644      M_A    0.0000
   4516 C         269.7689  164.9773   46.7851 C.3     645      M_A    0.0000
   4517 C         270.8849  164.4731   45.8787 C.3     645      M_A    0.0000
   4518 O         270.8233  163.0486   45.8261 O.3     645      M_A    0.0000
   4519 H         270.0902  164.8926   47.8294 H       645      M_A    0.0000
   4520 H         268.8734  164.3578   46.6611 H       645      M_A    0.0000
   4521 H         271.8441  164.7914   46.3107 H       645      M_A    0.0000
   4522 H         270.7981  164.8911   44.8667 H       645      M_A    0.0000
   4523 C         269.7108  162.5697   46.5512 C.3     646      M_A    0.0000
   4524 C         270.0206  161.2982   47.3313 C.3     646      M_A    0.0000
   4525 O         268.9760  160.3540   47.1006 O.3     646      M_A    0.0000
   4526 H         269.3956  163.3515   47.2515 H       646      M_A    0.0000
   4527 H         268.8829  162.3929   45.8552 H       646      M_A    0.0000
   4528 H         270.0641  161.5561   48.3987 H       646      M_A    0.0000
   4529 H         270.9870  160.8707   47.0322 H       646      M_A    0.0000
   4530 C         268.8587  159.4632   48.1894 C.3     647      M_A    0.0000
   4531 C         269.3284  158.0542   47.8495 C.3     647      M_A    0.0000
   4532 O         268.5386  157.1192   48.5829 O.3     647      M_A    0.0000
   4533 H         269.4626  159.8519   49.0172 H       647      M_A    0.0000
   4534 H         267.8142  159.4429   48.5204 H       647      M_A    0.0000
   4535 H         270.3835  157.9669   48.1447 H       647      M_A    0.0000
   4536 H         269.2458  157.8537   46.7729 H       647      M_A    0.0000
   4537 C         269.1752  155.8604   48.6350 C.3     648      M_A    0.0000
   4538 C         268.1857  154.7026   48.6784 C.3     648      M_A    0.0000
   4539 O         268.5729  153.8086   49.7209 O.3     648      M_A    0.0000
   4540 H         269.8068  155.7582   47.7452 H       648      M_A    0.0000
   4541 H         269.8300  155.8298   49.5132 H       648      M_A    0.0000
   4542 H         268.2231  154.1866   47.7087 H       648      M_A    0.0000
   4543 H         267.1608  155.0583   48.8492 H       648      M_A    0.0000
   4544 C         267.9378  152.5573   49.5672 C.3     649      M_A    0.0000
   4545 C         267.2495  152.0869   50.8425 C.3     649      M_A    0.0000
   4546 O         267.1057  150.6684   50.7882 O.3     649      M_A    0.0000
   4547 H         267.1915  152.6471   48.7699 H       649      M_A    0.0000
   4548 H         268.6812  151.8191   49.2456 H       649      M_A    0.0000
   4549 H         266.2599  152.5627   50.8902 H       649      M_A    0.0000
   4550 H         267.8217  152.3732   51.7351 H       649      M_A    0.0000
   4551 C         266.6516  150.1647   52.0262 C.3     650      M_A    0.0000
   4552 C         267.0082  148.6976   52.2306 C.3     650      M_A    0.0000
   4553 O         265.8059  147.9293   52.2241 O.3     650      M_A    0.0000
   4554 H         267.1076  150.7588   52.8263 H       650      M_A    0.0000
   4555 H         265.5659  150.3010   52.0882 H       650      M_A    0.0000
   4556 H         267.5094  148.6018   53.2041 H       650      M_A    0.0000
   4557 H         267.6886  148.3383   51.4470 H       650      M_A    0.0000
   4558 C         265.9825  146.7197   52.9301 C.3     651      M_A    0.0000
   4559 C         265.9826  145.5004   52.0166 C.3     651      M_A    0.0000
   4560 O         265.5688  144.3627   52.7720 O.3     651      M_A    0.0000
   4561 H         266.9398  146.7692   53.4612 H       651      M_A    0.0000
   4562 H         265.1897  146.6282   53.6812 H       651      M_A    0.0000
   4563 H         267.0069  145.3526   51.6466 H       651      M_A    0.0000
   4564 H         265.3146  145.6444   51.1569 H       651      M_A    0.0000
   4565 C         265.8005  143.1724   52.0494 C.3     652      M_A    0.0000
   4566 C         264.8431  142.0528   52.4384 C.3     652      M_A    0.0000
   4567 O         265.5504  141.1012   53.2321 O.3     652      M_A    0.0000
   4568 H         265.6815  143.3904   50.9820 H       652      M_A    0.0000
   4569 H         266.8371  142.8553   52.2107 H       652      M_A    0.0000
   4570 H         264.4827  141.5774   51.5153 H       652      M_A    0.0000
   4571 H         263.9798  142.4401   52.9958 H       652      M_A    0.0000
   4572 C         264.8342  139.8874   53.3128 C.3     653      M_A    0.0000
   4573 C         264.2683  139.6301   54.7038 C.3     653      M_A    0.0000
   4574 O         264.0678  138.2265   54.8637 O.3     653      M_A    0.0000
   4575 H         264.0092  139.9274   52.5925 H       653      M_A    0.0000
   4576 H         265.4951  139.0650   53.0165 H       653      M_A    0.0000
   4577 H         263.3074  140.1577   54.7831 H       653      M_A    0.0000
   4578 H         264.9421  140.0054   55.4857 H       653      M_A    0.0000
   4579 C         263.0645  137.7622   53.9859 C.3     654      M_A    0.0000
   4580 C         262.2288  136.6401   54.5891 C.3     654      M_A    0.0000
   4581 O         262.8348  135.3909   54.2608 O.3     654      M_A    0.0000
   4582 H         262.4083  138.6043   53.7389 H       654      M_A    0.0000
   4583 H         263.5355  137.4235   53.0560 H       654      M_A    0.0000
   4584 H         261.2213  136.6944   54.1532 H       654      M_A    0.0000
   4585 H         262.1472  136.7437   55.6794 H       654      M_A    0.0000
   4586 C         263.4878  134.8417   55.3854 C.3     655      M_A    0.0000
   4587 C         263.1125  133.3855   55.6302 C.3     655      M_A    0.0000
   4588 O         262.9792  133.1774   57.0355 O.3     655      M_A    0.0000
   4589 H         264.5692  134.9100   55.2213 H       655      M_A    0.0000
   4590 H         263.2461  135.4467   56.2666 H       655      M_A    0.0000
   4591 H         263.9199  132.7547   55.2325 H       655      M_A    0.0000
   4592 H         262.1760  133.1225   55.1204 H       655      M_A    0.0000
   4593 C         262.6532  131.8322   57.3124 C.3     656      M_A    0.0000
   4594 C         261.4479  131.3439   56.5184 C.3     656      M_A    0.0000
   4595 O         261.0986  130.0377   56.9739 O.3     656      M_A    0.0000
   4596 H         263.5211  131.2108   57.0640 H       656      M_A    0.0000
   4597 H         262.4649  131.7265   58.3868 H       656      M_A    0.0000
   4598 H         261.7317  131.3078   55.4572 H       656      M_A    0.0000
   4599 H         260.5924  132.0232   56.6316 H       656      M_A    0.0000
   4600 C         262.1143  129.5084   57.7990 C.3     657      M_A    0.0000
   4601 C         262.1350  127.9849   57.8021 C.3     657      M_A    0.0000
   4602 O         261.6650  127.5235   59.0678 O.3     657      M_A    0.0000
   4603 H         263.0795  129.8788   57.4354 H       657      M_A    0.0000
   4604 H         261.9759  129.8857   58.8186 H       657      M_A    0.0000
   4605 H         263.1728  127.6585   57.6456 H       657      M_A    0.0000
   4606 H         261.5112  127.5746   56.9967 H       657      M_A    0.0000
   4607 C         261.6869  126.1132   59.1247 C.3     658      M_A    0.0000
   4608 C         260.7507  125.4692   58.1097 C.3     658      M_A    0.0000
   4609 O         260.2925  124.2244   58.6352 O.3     658      M_A    0.0000
   4610 H         262.7118  125.7779   58.9294 H       658      M_A    0.0000
   4611 H         261.4202  125.7947   60.1388 H       658      M_A    0.0000
   4612 H         261.3178  125.2995   57.1837 H       658      M_A    0.0000
   4613 H         259.8954  126.1203   57.8849 H       658      M_A    0.0000
   4614 C         260.8776  123.9680   59.8940 C.3     659      M_A    0.0000
   4615 C         261.0692  122.4803   60.1612 C.3     659      M_A    0.0000
   4616 O         260.0292  122.0338   61.0300 O.3     659      M_A    0.0000
   4617 H         261.8531  124.4662   59.9267 H       659      M_A    0.0000
   4618 H         260.2502  124.4135   60.6744 H       659      M_A    0.0000
   4619 H         262.0465  122.3448   60.6455 H       659      M_A    0.0000
   4620 H         261.0548  121.9011   59.2283 H       659      M_A    0.0000
   4621 C         260.0619  120.6293   61.1674 C.3     660      M_A    0.0000
   4622 C         259.6988  119.9038   59.8777 C.3     660      M_A    0.0000
   4623 O         259.2024  118.6071   60.2064 O.3     660      M_A    0.0000
   4624 H         261.0742  120.3377   61.4693 H       660      M_A    0.0000
   4625 H         259.3773  120.3352   61.9711 H       660      M_A    0.0000
   4626 H         260.6101  119.8136   59.2700 H       660      M_A    0.0000
   4627 H         258.9460  120.4605   59.3038 H       660      M_A    0.0000
   4628 C         259.1541  118.4308   61.6061 C.3     661      M_A    0.0000
   4629 C         259.4171  116.9902   62.0266 C.3     661      M_A    0.0000
   4630 O         258.2340  116.4658   62.6278 O.3     661      M_A    0.0000
   4631 H         259.9114  119.0800   62.0599 H       661      M_A    0.0000
   4632 H         258.1738  118.7573   61.9713 H       661      M_A    0.0000
   4633 H         260.2388  116.9934   62.7564 H       661      M_A    0.0000
   4634 H         259.7098  116.3700   61.1688 H       661      M_A    0.0000
   4635 C         257.2014  116.3423   61.6732 C.3     662      M_A    0.0000
   4636 C         256.4400  115.0285   61.7975 C.3     662      M_A    0.0000
   4637 O         257.1224  114.0307   61.0395 O.3     662      M_A    0.0000
   4638 H         256.5033  117.1753   61.8134 H       662      M_A    0.0000
   4639 H         257.6327  116.4348   60.6699 H       662      M_A    0.0000
   4640 H         255.4297  115.1813   61.3926 H       662      M_A    0.0000
   4641 H         256.3556  114.7125   62.8458 H       662      M_A    0.0000
   4642 C         257.5563  112.9788   61.8749 C.3     663      M_A    0.0000
   4643 C         256.7285  111.7114   61.7024 C.3     663      M_A    0.0000
   4644 O         256.8495  110.9214   62.8844 O.3     663      M_A    0.0000
   4645 H         258.6024  112.7587   61.6340 H       663      M_A    0.0000
   4646 H         257.5186  113.3148   62.9174 H       663      M_A    0.0000
   4647 H         257.1275  111.1593   60.8398 H       663      M_A    0.0000
   4648 H         255.6725  111.9459   61.5130 H       663      M_A    0.0000
   4649 C         258.1538  111.0149   63.4161 C.3     664      M_A    0.0000
   4650 C         258.6056  109.7278   64.0949 C.3     664      M_A    0.0000
   4651 O         258.1760  109.7529   65.4554 O.3     664      M_A    0.0000
   4652 H         258.8425  111.2480   62.5962 H       664      M_A    0.0000
   4653 H         258.1884  111.8483   64.1270 H       664      M_A    0.0000
   4654 H         259.7029  109.6859   64.0488 H       664      M_A    0.0000
   4655 H         258.1974  108.8433   63.5877 H       664      M_A    0.0000
   4656 C         258.1166  108.4455   65.9844 C.3     665      M_A    0.0000
   4657 C         257.3262  107.4889   65.1003 C.3     665      M_A    0.0000
   4658 O         256.6502  106.5485   65.9337 O.3     665      M_A    0.0000
   4659 H         259.1412  108.0714   66.0901 H       665      M_A    0.0000
   4660 H         257.6727  108.4876   66.9855 H       665      M_A    0.0000
   4661 H         258.0367  106.9662   64.4446 H       665      M_A    0.0000
   4662 H         256.6011  108.0278   64.4759 H       665      M_A    0.0000
   4663 C         256.2864  105.4002   65.1977 C.3     666      M_A    0.0000
   4664 C         255.3744  104.4643   65.9811 C.3     666      M_A    0.0000
   4665 O         255.9672  103.1668   66.0110 O.3     666      M_A    0.0000
   4666 H         255.7691  105.7255   64.2879 H       666      M_A    0.0000
   4667 H         257.1964  104.8715   64.8920 H       666      M_A    0.0000
   4668 H         254.4054  104.4221   65.4642 H       666      M_A    0.0000
   4669 H         255.2124  104.8277   67.0047 H       666      M_A    0.0000
   4670 C         255.0422  102.2057   66.4729 C.3     667      M_A    0.0000
   4671 C         255.6143  101.3202   67.5729 C.3     667      M_A    0.0000
   4672 O         254.8690  100.1042   67.6154 O.3     667      M_A    0.0000
   4673 H         254.1631  102.7337   66.8592 H       667      M_A    0.0000
   4674 H         254.7159  101.5915   65.6259 H       667      M_A    0.0000
   4675 H         255.5134  101.8556   68.5274 H       667      M_A    0.0000
   4676 H         256.6772  101.1042   67.4005 H       667      M_A    0.0000
   4677 C         255.1266   99.4023   68.8127 C.3     668      M_A    0.0000
   4678 C         255.0585   97.8907   68.6342 C.3     668      M_A    0.0000
   4679 O         253.9534   97.3906   69.3854 O.3     668      M_A    0.0000
   4680 H         256.1283   99.6766   69.1624 H       668      M_A    0.0000
   4681 H         254.4082   99.7247   69.5749 H       668      M_A    0.0000
   4682 H         255.9958   97.4607   69.0143 H       668      M_A    0.0000
   4683 H         254.9488   97.6172   67.5762 H       668      M_A    0.0000
   4684 C         253.5477   96.1295   68.8977 C.3     669      M_A    0.0000
   4685 C         253.1188   95.1796   70.0090 C.3     669      M_A    0.0000
   4686 O         253.2513   93.8383   69.5408 O.3     669      M_A    0.0000
   4687 H         252.7064   96.2814   68.2121 H       669      M_A    0.0000
   4688 H         254.3706   95.6900   68.3225 H       669      M_A    0.0000
   4689 H         252.0675   95.3906   70.2500 H       669      M_A    0.0000
   4690 H         253.7238   95.3236   70.9142 H       669      M_A    0.0000
   4691 C         252.2289   93.0214   70.0702 C.3     670      M_A    0.0000
   4692 C         252.7719   91.8038   70.8077 C.3     670      M_A    0.0000
   4693 O         251.8980   90.7002   70.5746 O.3     670      M_A    0.0000
   4694 H         251.6331   93.6243   70.7647 H       670      M_A    0.0000
   4695 H         251.5693   92.7048   69.2542 H       670      M_A    0.0000
   4696 H         252.7993   92.0403   71.8807 H       670      M_A    0.0000
   4697 H         253.7887   91.5552   70.4755 H       670      M_A    0.0000
   4698 C         251.8400   89.8610   71.7081 C.3     671      M_A    0.0000
   4699 C         252.1968   88.4148   71.3877 C.3     671      M_A    0.0000
   4700 O         251.3614   87.5552   72.1618 O.3     671      M_A    0.0000
   4701 H         252.5425   90.2457   72.4560 H       671      M_A    0.0000
   4702 H         250.8335   89.9147   72.1384 H       671      M_A    0.0000
   4703 H         253.2504   88.2565   71.6576 H       671      M_A    0.0000
   4704 H         252.0706   88.1990   70.3183 H       671      M_A    0.0000
   4705 C         251.7062   86.2025   71.9521 C.3     672      M_A    0.0000
   4706 C         250.6194   85.2402   72.4149 C.3     672      M_A    0.0000
   4707 O         251.2394   84.0616   72.9270 O.3     672      M_A    0.0000
   4708 H         251.8820   86.0554   70.8805 H       672      M_A    0.0000
   4709 H         252.6455   85.9904   72.4756 H       672      M_A    0.0000
   4710 H         249.9954   84.9885   71.5458 H       672      M_A    0.0000
   4711 H         249.9832   85.6958   73.1855 H       672      M_A    0.0000
   4712 C         250.3217   82.9896   72.9621 C.3     673      M_A    0.0000
   4713 C         250.4259   82.1681   74.2411 C.3     673      M_A    0.0000
   4714 O         249.9528   80.8482   73.9770 O.3     673      M_A    0.0000
   4715 H         249.3094   83.4018   72.8829 H       673      M_A    0.0000
   4716 H         250.4897   82.3498   72.0883 H       673      M_A    0.0000
   4717 H         249.7966   82.6464   75.0047 H       673      M_A    0.0000
   4718 H         251.4599   82.1306   74.6094 H       673      M_A    0.0000
   4719 C         250.6028   79.9094   74.8068 C.3     674      M_A    0.0000
   4720 C         250.1142   78.4846   74.5777 C.3     674      M_A    0.0000
   4721 O         249.6417   77.9580   75.8168 O.3     674      M_A    0.0000
   4722 H         251.6782   79.9564   74.6012 H       674      M_A    0.0000
   4723 H         250.4514   80.1962   75.8537 H       674      M_A    0.0000
   4724 H         250.9633   77.8878   74.2160 H       674      M_A    0.0000
   4725 H         249.3145   78.4518   73.8256 H       674      M_A    0.0000
   4726 C         249.4567   76.5614   75.7278 C.3     675      M_A    0.0000
   4727 C         248.0242   76.1378   76.0275 C.3     675      M_A    0.0000
   4728 O         248.0130   74.7434   76.3294 O.3     675      M_A    0.0000
   4729 H         249.7185   76.2448   74.7119 H       675      M_A    0.0000
   4730 H         250.1486   76.0670   76.4191 H       675      M_A    0.0000
   4731 H         247.4174   76.3326   75.1320 H       675      M_A    0.0000
   4732 H         247.6058   76.7080   76.8677 H       675      M_A    0.0000
   4733 C         246.7602   74.3555   76.8516 C.3     676      M_A    0.0000
   4734 C         246.8525   73.1297   77.7519 C.3     676      M_A    0.0000
   4735 O         246.4657   71.9801   77.0006 O.3     676      M_A    0.0000
   4736 H         246.3548   75.1940   77.4290 H       676      M_A    0.0000
   4737 H         246.0736   74.1614   76.0197 H       676      M_A    0.0000
   4738 H         246.1641   73.2752   78.5962 H       676      M_A    0.0000
   4739 H         247.8695   72.9977   78.1450 H       676      M_A    0.0000
   4740 C         245.8454   71.0244   77.8341 C.3     677      M_A    0.0000
   4741 C         246.8263   69.9926   78.3767 C.3     677      M_A    0.0000
   4742 O         246.2451   68.6960   78.2467 O.3     677      M_A    0.0000
   4743 H         245.3801   71.5524   78.6742 H       677      M_A    0.0000
   4744 H         245.0477   70.5268   77.2710 H       677      M_A    0.0000
   4745 H         247.0057   70.2185   79.4372 H       677      M_A    0.0000
   4746 H         247.7844   70.0308   77.8412 H       677      M_A    0.0000
   4747 C         246.7579   67.8183   79.2261 C.3     678      M_A    0.0000
   4748 C         246.7027   66.3583   78.7940 C.3     678      M_A    0.0000
   4749 O         246.1144   65.5923   79.8443 O.3     678      M_A    0.0000
   4750 H         247.8001   68.0944   79.4222 H       678      M_A    0.0000
   4751 H         246.1961   67.9577   80.1567 H       678      M_A    0.0000
   4752 H         247.7319   66.0180   78.6127 H       678      M_A    0.0000
   4753 H         246.1230   66.2363   77.8692 H       678      M_A    0.0000
   4754 C         246.1180   64.2179   79.5222 C.3     679      M_A    0.0000
   4755 C         245.0269   63.4410   80.2485 C.3     679      M_A    0.0000
   4756 O         245.4397   62.0810   80.3738 O.3     679      M_A    0.0000
   4757 H         245.9690   64.1185   78.4411 H       679      M_A    0.0000
   4758 H         247.1021   63.7997   79.7623 H       679      M_A    0.0000
   4759 H         244.1091   63.5005   79.6468 H       679      M_A    0.0000
   4760 H         244.8259   63.8663   81.2409 H       679      M_A    0.0000
   4761 C         244.3340   61.2466   80.6456 C.3     680      M_A    0.0000
   4762 C         244.6838   60.0914   81.5754 C.3     680      M_A    0.0000
   4763 O         244.0284   58.9133   81.1080 O.3     680      M_A    0.0000
   4764 H         243.5506   61.8558   81.1105 H       680      M_A    0.0000
   4765 H         243.9384   60.8620   79.6986 H       680      M_A    0.0000
   4766 H         244.3255   60.3452   82.5829 H       680      M_A    0.0000
   4767 H         245.7687   59.9266   81.6182 H       680      M_A    0.0000
   4768 C         244.5119   57.7717   81.7831 C.3     681      M_A    0.0000
   4769 C         243.5859   56.5699   81.6433 C.3     681      M_A    0.0000
   4770 O         243.8379   55.6703   82.7217 O.3     681      M_A    0.0000
   4771 H         245.4935   57.5175   81.3674 H       681      M_A    0.0000
   4772 H         244.6525   58.0184   82.8416 H       681      M_A    0.0000
   4773 H         243.8081   56.0789   80.6855 H       681      M_A    0.0000
   4774 H         242.5309   56.8751   81.6466 H       681      M_A    0.0000
   4775 C         242.6983   54.8820   82.9911 C.3     682      M_A    0.0000
   4776 C         243.0211   53.6464   83.8220 C.3     682      M_A    0.0000
   4777 O         242.3190   52.5311   83.2753 O.3     682      M_A    0.0000
   4778 H         241.9746   55.4999   83.5347 H       682      M_A    0.0000
   4779 H         242.2375   54.5879   82.0412 H       682      M_A    0.0000
   4780 H         242.6861   53.8322   84.8522 H       682      M_A    0.0000
   4781 H         244.1003   53.4427   83.8336 H       682      M_A    0.0000
   4782 C         242.1706   51.5123   84.2410 C.3     683      M_A    0.0000
   4783 C         242.8004   50.1946   83.8069 C.3     683      M_A    0.0000
   4784 O         242.2123   49.1359   84.5613 O.3     683      M_A    0.0000
   4785 H         242.6464   51.8477   85.1694 H       683      M_A    0.0000
   4786 H         241.1034   51.3706   84.4463 H       683      M_A    0.0000
   4787 H         243.8785   50.2485   84.0137 H       683      M_A    0.0000
   4788 H         242.6559   50.0166   82.7329 H       683      M_A    0.0000
   4789 C         243.0305   47.9860   84.5301 C.3     684      M_A    0.0000
   4790 C         242.2276   46.6918   84.5728 C.3     684      M_A    0.0000
   4791 O         242.3405   46.1261   85.8778 O.3     684      M_A    0.0000
   4792 H         243.6214   48.0105   83.6075 H       684      M_A    0.0000
   4793 H         243.7290   48.0245   85.3738 H       684      M_A    0.0000
   4794 H         242.6516   46.0039   83.8278 H       684      M_A    0.0000
   4795 H         241.1714   46.8680   84.3292 H       684      M_A    0.0000
   4796 C         241.8274   44.8113   85.8982 C.3     685      M_A    0.0000
   4797 C         240.4014   44.7285   85.3681 C.3     685      M_A    0.0000
   4798 O         239.7513   43.6131   85.9758 O.3     685      M_A    0.0000
   4799 H         242.4762   44.1802   85.2803 H       685      M_A    0.0000
   4800 H         241.8710   44.4291   86.9244 H       685      M_A    0.0000
   4801 H         240.4509   44.5862   84.2794 H       685      M_A    0.0000
   4802 H         239.8422   45.6501   85.5781 H       685      M_A    0.0000
   4803 C         240.6496   42.8984   86.7973 C.3     686      M_A    0.0000
   4804 C         240.3570   41.4034   86.8268 C.3     686      M_A    0.0000
   4805 O         240.2332   40.9882   88.1862 O.3     686      M_A    0.0000
   4806 H         241.6644   43.0570   86.4151 H       686      M_A    0.0000
   4807 H         240.6078   43.3109   87.8118 H       686      M_A    0.0000
   4808 H         241.1996   40.8824   86.3507 H       686      M_A    0.0000
   4809 H         239.4379   41.1646   86.2752 H       686      M_A    0.0000
   4810 C         240.0893   39.5863   88.2690 C.3     687      M_A    0.0000
   4811 C         238.8626   39.0762   87.5233 C.3     687      M_A    0.0000
   4812 O         238.5130   37.7934   88.0410 O.3     687      M_A    0.0000
   4813 H         240.9861   39.1237   87.8417 H       687      M_A    0.0000
   4814 H         240.0364   39.2967   89.3247 H       687      M_A    0.0000
   4815 H         239.1220   38.9930   86.4585 H       687      M_A    0.0000
   4816 H         238.0153   39.7673   87.6266 H       687      M_A    0.0000
   4817 C         239.4670   37.3597   88.9868 C.3     688      M_A    0.0000
   4818 C         239.5740   35.8417   89.0603 C.3     688      M_A    0.0000
   4819 O         238.8655   35.3883   90.2128 O.3     688      M_A    0.0000
   4820 H         240.4417   37.7741   88.7056 H       688      M_A    0.0000
   4821 H         239.2032   37.7672   89.9694 H       688      M_A    0.0000
   4822 H         240.6378   35.5795   89.1468 H       688      M_A    0.0000
   4823 H         239.1663   35.3676   88.1574 H       688      M_A    0.0000
   4824 C         239.1358   34.0252   90.4610 C.3     689      M_A    0.0000
   4825 C         238.8578   33.1411   89.2517 C.3     689      M_A    0.0000
   4826 O         238.1990   31.9552   89.6937 O.3     689      M_A    0.0000
   4827 H         240.1915   33.9300   90.7389 H       689      M_A    0.0000
   4828 H         238.5354   33.6943   91.3161 H       689      M_A    0.0000
   4829 H         239.8212   32.8848   88.7890 H       689      M_A    0.0000
   4830 H         238.2377   33.6616   88.5096 H       689      M_A    0.0000
   4831 C         237.9917   31.9897   91.0896 C.3     690      M_A    0.0000
   4832 C         238.0619   30.6084   91.7287 C.3     690      M_A    0.0000
   4833 O         236.7335   30.1527   91.9804 O.3     690      M_A    0.0000
   4834 H         238.7618   32.6297   91.5349 H       690      M_A    0.0000
   4835 H         237.0181   32.4501   91.2925 H       690      M_A    0.0000
   4836 H         238.6130   30.6992   92.6752 H       690      M_A    0.0000
   4837 H         238.5883   29.8943   91.0814 H       690      M_A    0.0000
   4838 C         236.7275   28.7740   92.2834 C.3     691      M_A    0.0000
   4839 C         236.4052   27.9074   91.0723 C.3     691      M_A    0.0000
   4840 O         236.1566   26.5745   91.5166 O.3     691      M_A    0.0000
   4841 H         237.7183   28.5022   92.6646 H       691      M_A    0.0000
   4842 H         236.0012   28.5895   93.0831 H       691      M_A    0.0000
   4843 H         237.2758   27.9230   90.4016 H       691      M_A    0.0000
   4844 H         235.5328   28.2910   90.5266 H       691      M_A    0.0000
   4845 C         235.9933   26.5376   92.9183 C.3     692      M_A    0.0000
   4846 C         236.4709   25.2272   93.5315 C.3     692      M_A    0.0000
   4847 O         235.3349   24.4067   93.7998 O.3     692      M_A    0.0000
   4848 H         236.5654   27.3655   93.3522 H       692      M_A    0.0000
   4849 H         234.9364   26.7025   93.1569 H       692      M_A    0.0000
   4850 H         236.9943   25.4614   94.4692 H       692      M_A    0.0000
   4851 H         237.1650   24.7017   92.8621 H       692      M_A    0.0000
   4852 C         235.7326   23.0861   94.1009 C.3     693      M_A    0.0000
   4853 C         234.7675   22.0421   93.5533 C.3     693      M_A    0.0000
   4854 O         234.8904   20.8526   94.3315 O.3     693      M_A    0.0000
   4855 H         236.7248   22.9192   93.6665 H       693      M_A    0.0000
   4856 H         235.8236   22.9821   95.1881 H       693      M_A    0.0000
   4857 H         235.0440   21.8377   92.5094 H       693      M_A    0.0000
   4858 H         233.7306   22.4032   93.5790 H       693      M_A    0.0000
   4859 C         234.5874   19.7138   93.5542 C.3     694      M_A    0.0000
   4860 C         233.7425   18.6949   94.3087 C.3     694      M_A    0.0000
   4861 O         234.5513   17.5563   94.6009 O.3     694      M_A    0.0000
   4862 H         234.0409   20.0423   92.6630 H       694      M_A    0.0000
   4863 H         235.5238   19.2532   93.2194 H       694      M_A    0.0000
   4864 H         232.9035   18.4029   93.6616 H       694      M_A    0.0000
   4865 H         233.3397   19.1188   95.2383 H       694      M_A    0.0000
   4866 C         234.0436   16.8562   95.7166 C.3     695      M_A    0.0000
   4867 C         234.2717   15.3528   95.6207 C.3     695      M_A    0.0000
   4868 O         233.3228   14.6918   96.4566 O.3     695      M_A    0.0000
   4869 H         234.5408   17.2371   96.6158 H       695      M_A    0.0000
   4870 H         232.9730   17.0698   95.8125 H       695      M_A    0.0000
   4871 H         235.2918   15.1405   95.9706 H       695      M_A    0.0000
   4872 H         234.1730   14.9982   94.5860 H       695      M_A    0.0000
   4873 C         233.2975   13.3068   96.1850 C.3     696      M_A    0.0000
   4874 C         232.3575   12.5435   97.1098 C.3     696      M_A    0.0000
   4875 O         232.8622   11.2205   97.2846 O.3     696      M_A    0.0000
   4876 H         232.9717   13.1665   95.1482 H       696      M_A    0.0000
   4877 H         234.3154   12.9097   96.2706 H       696      M_A    0.0000
   4878 H         231.3674   12.5074   96.6340 H       696      M_A    0.0000
   4879 H         232.2626   13.0418   98.0838 H       696      M_A    0.0000
   4880 C         231.8096   10.3132   97.5326 C.3     697      M_A    0.0000
   4881 C         232.1148    9.3579   98.6796 C.3     697      M_A    0.0000
   4882 O         231.4956    8.1019   98.4061 O.3     697      M_A    0.0000
   4883 H         230.9101   10.8897   97.7765 H       697      M_A    0.0000
   4884 H         231.6045    9.7485   96.6160 H       697      M_A    0.0000
   4885 H         231.6983    9.7886   99.6010 H       697      M_A    0.0000
   4886 H         233.1968    9.2233   98.8112 H       697      M_A    0.0000
   4887 C         231.4572    7.3005   99.5676 C.3     698      M_A    0.0000
   4888 C         231.5085    5.8101   99.2555 C.3     698      M_A    0.0000
   4889 O         230.6544    5.1220  100.1681 O.3     698      M_A    0.0000
   4890 H         232.3161    7.5646  100.1950 H       698      M_A    0.0000
   4891 H         230.5479    7.5367  100.1318 H       698      M_A    0.0000
   4892 H         232.5460    5.4711   99.3844 H       698      M_A    0.0000
   4893 H         231.1969    5.6067   98.2223 H       698      M_A    0.0000
   4894 C         230.7739    3.7246  100.0071 C.3     699      M_A    0.0000
   4895 C         229.6081    2.9602  100.6219 C.3     699      M_A    0.0000
   4896 O         230.0335    1.6283  100.9063 O.3     699      M_A    0.0000
   4897 H         230.8196    3.5057   98.9343 H       699      M_A    0.0000
   4898 H         231.7186    3.3953  100.4544 H       699      M_A    0.0000
   4899 H         228.7883    2.9439   99.8900 H       699      M_A    0.0000
   4900 H         229.2512    3.4454  101.5402 H       699      M_A    0.0000
   4901 C         228.9281    0.7519  100.9607 C.3     700      M_A    0.0000
   4902 C         229.0890   -0.3321  102.0192 C.3     700      M_A    0.0000
   4903 O         228.6209   -1.5685  101.4827 O.3     700      M_A    0.0000
   4904 H         228.0330    1.3425  101.1863 H       700      M_A    0.0000
   4905 H         228.7868    0.2972   99.9737 H       700      M_A    0.0000
   4906 H         228.4833   -0.0485  102.8914 H       700      M_A    0.0000
   4907 H         230.1363   -0.4313  102.3346 H       700      M_A    0.0000
   4908 C         229.0209   -2.6497  102.2973 C.3     701      M_A    0.0000
   4909 C         228.1712   -3.8956  102.0797 C.3     701      M_A    0.0000
   4910 O         228.2225   -4.6962  103.2596 O.3     701      M_A    0.0000
   4911 H         230.0662   -2.8846  102.0667 H       701      M_A    0.0000
   4912 H         228.9734   -2.3396  103.3473 H       701      M_A    0.0000
   4913 H         228.5936   -4.4513  101.2306 H       701      M_A    0.0000
   4914 H         227.1302   -3.6344  101.8471 H       701      M_A    0.0000
   4915 C         227.1723   -5.6394  103.2690 C.3     702      M_A    0.0000
   4916 C         227.0504   -6.3702  104.6004 C.3     702      M_A    0.0000
   4917 O         225.6960   -6.2930  105.0424 O.3     702      M_A    0.0000
   4918 H         226.2346   -5.1108  103.0637 H       702      M_A    0.0000
   4919 H         227.3335   -6.3583  102.4576 H       702      M_A    0.0000
   4920 H         227.7102   -5.8712  105.3240 H       702      M_A    0.0000
   4921 H         227.3573   -7.4208  104.5097 H       702      M_A    0.0000
   4922 C         224.9417   -5.4520  104.1960 C.3     703      M_A    0.0000
   4923 C         225.6878   -4.1795  103.8149 C.3     703      M_A    0.0000
   4924 O         225.0791   -3.0749  104.4821 O.3     703      M_A    0.0000
   4925 H         224.6986   -6.0109  103.2852 H       703      M_A    0.0000
   4926 H         223.9982   -5.2011  104.6942 H       703      M_A    0.0000
   4927 H         225.6072   -4.0509  102.7264 H       703      M_A    0.0000
   4928 H         226.7505   -4.2427  104.0846 H       703      M_A    0.0000
   4929 C         225.8769   -1.9167  104.3603 C.3     704      M_A    0.0000
   4930 C         225.1801   -0.8011  103.5912 C.3     704      M_A    0.0000
   4931 O         225.5183   -0.9173  102.2099 O.3     704      M_A    0.0000
   4932 H         226.1193   -1.5596  105.3676 H       704      M_A    0.0000
   4933 H         226.8180   -2.1842  103.8666 H       704      M_A    0.0000
   4934 H         225.5392    0.1598  103.9857 H       704      M_A    0.0000
   4935 H         224.0901   -0.8487  103.7170 H       704      M_A    0.0000
   4936 C         226.3150    0.1725  101.7974 C.3     705      M_A    0.0000
   4937 C         225.5777    1.5035  101.8779 C.3     705      M_A    0.0000
   4938 O         225.5475    2.0892  100.5772 O.3     705      M_A    0.0000
   4939 H         227.1999    0.2140  102.4425 H       705      M_A    0.0000
   4940 H         226.6586   -0.0068  100.7723 H       705      M_A    0.0000
   4941 H         226.1280    2.1558  102.5704 H       705      M_A    0.0000
   4942 H         224.5547    1.3720  102.2552 H       705      M_A    0.0000
   4943 C         226.6483    1.6541   99.8080 C.3     706      M_A    0.0000
   4944 C         226.7837    2.4129   98.4938 C.3     706      M_A    0.0000
   4945 O         226.8485    1.4695   97.4253 O.3     706      M_A    0.0000
   4946 H         227.5590    1.7985  100.4002 H       706      M_A    0.0000
   4947 H         226.5439    0.5804   99.6146 H       706      M_A    0.0000
   4948 H         227.7126    2.9990   98.5335 H       706      M_A    0.0000
   4949 H         225.9403    3.0991   98.3391 H       706      M_A    0.0000
   4950 C         228.1612    1.3844   96.9132 C.3     707      M_A    0.0000
   4951 C         228.8126    0.0345   97.1867 C.3     707      M_A    0.0000
   4952 O         230.1351    0.2551   97.6747 O.3     707      M_A    0.0000
   4953 H         228.1183    1.5484   95.8305 H       707      M_A    0.0000
   4954 H         228.7647    2.1893   97.3480 H       707      M_A    0.0000
   4955 H         228.8502   -0.5230   96.2402 H       707      M_A    0.0000
   4956 H         228.2346   -0.5483   97.9164 H       707      M_A    0.0000
   4957 C         230.7189    1.3760   97.0459 C.3     708      M_A    0.0000
   4958 C         232.1469    1.6333   97.5106 C.3     708      M_A    0.0000
   4959 O         232.7181    2.6524   96.6914 O.3     708      M_A    0.0000
   4960 H         230.7207    1.2003   95.9642 H       708      M_A    0.0000
   4961 H         230.0952    2.2562   97.2390 H       708      M_A    0.0000
   4962 H         232.7149    0.6991   97.3977 H       708      M_A    0.0000
   4963 H         232.1758    1.9381   98.5652 H       708      M_A    0.0000
   4964 C         231.7103    3.3698   96.0114 C.3     709      M_A    0.0000
   4965 C         232.2741    4.3609   95.0009 C.3     709      M_A    0.0000
   4966 O         231.2559    5.3030   94.6669 O.3     709      M_A    0.0000
   4967 H         231.0704    2.6502   95.4883 H       709      M_A    0.0000
   4968 H         231.0895    3.8935   96.7473 H       709      M_A    0.0000
   4969 H         232.5743    3.7996   94.1050 H       709      M_A    0.0000
   4970 H         233.1536    4.8833   95.4007 H       709      M_A    0.0000
   4971 C         230.3987    5.5228   95.7667 C.3     710      M_A    0.0000
   4972 C         229.4686    6.7115   95.5588 C.3     710      M_A    0.0000
   4973 O         228.5814    6.7987   96.6729 O.3     710      M_A    0.0000
   4974 H         229.7969    4.6196   95.9184 H       710      M_A    0.0000
   4975 H         231.0066    5.6725   96.6662 H       710      M_A    0.0000
   4976 H         228.8965    6.5386   94.6364 H       710      M_A    0.0000
   4977 H         230.0331    7.6476   95.4532 H       710      M_A    0.0000
   4978 C         228.0827    8.1119   96.8126 C.3     711      M_A    0.0000
   4979 C         228.9063    8.9537   97.7792 C.3     711      M_A    0.0000
   4980 O         228.2156   10.1784   98.0223 O.3     711      M_A    0.0000
   4981 H         228.0911    8.5887   95.8259 H       711      M_A    0.0000
   4982 H         227.0410    8.0619   97.1492 H       711      M_A    0.0000
   4983 H         229.8784    9.1583   97.3089 H       711      M_A    0.0000
   4984 H         229.0773    8.4239   98.7258 H       711      M_A    0.0000
   4985 C         228.5455   10.6937   99.2944 C.3     712      M_A    0.0000
   4986 C         228.2465   12.1823   99.4213 C.3     712      M_A    0.0000
   4987 O         229.3537   12.8188  100.0575 O.3     712      M_A    0.0000
   4988 H         227.9660   10.1468  100.0468 H       712      M_A    0.0000
   4989 H         229.6071   10.5043   99.4897 H       712      M_A    0.0000
   4990 H         227.3434   12.2966  100.0372 H       712      M_A    0.0000
   4991 H         228.0635   12.6388   98.4393 H       712      M_A    0.0000
   4992 C         229.4179   12.4626  101.4220 C.3     713      M_A    0.0000
   4993 C         229.5097   13.6736  102.3420 C.3     713      M_A    0.0000
   4994 O         228.1929   14.0336  102.7572 O.3     713      M_A    0.0000
   4995 H         228.5159   11.8919  101.6703 H       713      M_A    0.0000
   4996 H         230.2808   11.8050  101.5769 H       713      M_A    0.0000
   4997 H         229.9626   14.4985  101.7743 H       713      M_A    0.0000
   4998 H         230.1364   13.4632  103.2190 H       713      M_A    0.0000
   4999 C         227.6610   15.0358  101.9174 C.3     714      M_A    0.0000
   5000 C         228.3511   16.3820  102.0988 C.3     714      M_A    0.0000
   5001 O         228.0328   17.2132  100.9836 O.3     714      M_A    0.0000
   5002 H         227.7790   14.7103  100.8777 H       714      M_A    0.0000
   5003 H         226.5876   15.1325  102.1161 H       714      M_A    0.0000
   5004 H         229.4353   16.2060  102.1380 H       714      M_A    0.0000
   5005 H         228.0391   16.8691  103.0323 H       714      M_A    0.0000
   5006 C         228.6690   16.7446   99.8138 C.3     715      M_A    0.0000
   5007 C         230.1825   16.9137   99.8597 C.3     715      M_A    0.0000
   5008 O         230.6059   17.5703   98.6658 O.3     715      M_A    0.0000
   5009 H         228.4310   15.6814   99.6964 H       715      M_A    0.0000
   5010 H         228.2562   17.2755   98.9484 H       715      M_A    0.0000
   5011 H         230.6348   15.9138   99.9185 H       715      M_A    0.0000
   5012 H         230.4939   17.4937  100.7387 H       715      M_A    0.0000
   5013 C         229.6749   17.3634   97.6250 C.3     716      M_A    0.0000
   5014 C         230.2630   17.6391   96.2467 C.3     716      M_A    0.0000
   5015 O         229.4497   18.6088   95.5879 O.3     716      M_A    0.0000
   5016 H         229.3378   16.3216   97.6685 H       716      M_A    0.0000
   5017 H         228.8019   18.0031   97.7973 H       716      M_A    0.0000
   5018 H         230.2574   16.6974   95.6800 H       716      M_A    0.0000
   5019 H         231.2973   18.0014   96.3182 H       716      M_A    0.0000
   5020 C         229.7422   18.6510   94.2076 C.3     717      M_A    0.0000
   5021 C         230.5459   19.8842   93.8144 C.3     717      M_A    0.0000
   5022 O         229.6402   20.9148   93.4226 O.3     717      M_A    0.0000
   5023 H         230.3157   17.7531   93.9508 H       717      M_A    0.0000
   5024 H         228.8025   18.6180   93.6445 H       717      M_A    0.0000
   5025 H         231.1936   19.6128   92.9690 H       717      M_A    0.0000
   5026 H         231.1760   20.2324   94.6437 H       717      M_A    0.0000
   5027 C         228.6874   21.1542   94.4361 C.3     718      M_A    0.0000
   5028 C         227.6933   22.2467   94.0624 C.3     718      M_A    0.0000
   5029 O         226.5988   22.2018   94.9767 O.3     718      M_A    0.0000
   5030 H         228.1418   20.2219   94.6211 H       718      M_A    0.0000
   5031 H         229.2120   21.4218   95.3604 H       718      M_A    0.0000
   5032 H         227.3377   22.0483   93.0416 H       718      M_A    0.0000
   5033 H         228.1624   23.2395   94.0856 H       718      M_A    0.0000
   5034 C         225.6153   23.1514   94.6254 C.3     719      M_A    0.0000
   5035 C         224.2065   22.5716   94.6399 C.3     719      M_A    0.0000
   5036 O         223.3291   23.4844   93.9819 O.3     719      M_A    0.0000
   5037 H         225.6685   23.9806   95.3399 H       719      M_A    0.0000
   5038 H         225.8479   23.5524   93.6323 H       719      M_A    0.0000
   5039 H         223.9007   22.4470   95.6881 H       719      M_A    0.0000
   5040 H         224.1716   21.5924   94.1437 H       719      M_A    0.0000
   5041 C         221.9813   23.1686   94.2581 C.3     720      M_A    0.0000
   5042 C         221.0260   23.6829   93.1884 C.3     720      M_A    0.0000
   5043 O         219.9079   24.2951   93.8296 O.3     720      M_A    0.0000
   5044 H         221.8911   22.0785   94.3244 H       720      M_A    0.0000
   5045 H         221.7124   23.5848   95.2356 H       720      M_A    0.0000
   5046 H         220.6911   22.8240   92.5900 H       720      M_A    0.0000
   5047 H         221.5201   24.4043   92.5240 H       720      M_A    0.0000
   5048 C         219.1207   25.0009   92.8943 C.3     721      M_A    0.0000
   5049 C         218.0175   25.8195   93.5532 C.3     721      M_A    0.0000
   5050 O         217.1442   26.3116   92.5379 O.3     721      M_A    0.0000
   5051 H         219.7777   25.6733   92.3311 H       721      M_A    0.0000
   5052 H         218.6877   24.2870   92.1844 H       721      M_A    0.0000
   5053 H         218.4878   26.6598   94.0831 H       721      M_A    0.0000
   5054 H         217.4516   25.2186   94.2775 H       721      M_A    0.0000
   5055 C         217.0255   27.7159   92.6188 C.3     722      M_A    0.0000
   5056 C         215.6007   28.2001   92.3802 C.3     722      M_A    0.0000
   5057 O         215.6495   29.4188   91.6399 O.3     722      M_A    0.0000
   5058 H         217.3479   28.0304   93.6178 H       722      M_A    0.0000
   5059 H         217.7057   28.1722   91.8907 H       722      M_A    0.0000
   5060 H         215.1323   28.3744   93.3591 H       722      M_A    0.0000
   5061 H         215.0098   27.4520   91.8350 H       722      M_A    0.0000
   5062 C         214.3631   29.7770   91.1823 C.3     723      M_A    0.0000
   5063 C         214.2728   31.2405   90.7682 C.3     723      M_A    0.0000
   5064 O         212.9478   31.7063   91.0199 O.3     723      M_A    0.0000
   5065 H         214.1172   29.1456   90.3210 H       723      M_A    0.0000
   5066 H         213.6333   29.5626   91.9712 H       723      M_A    0.0000
   5067 H         214.4951   31.3044   89.6938 H       723      M_A    0.0000
   5068 H         214.9986   31.8568   91.3156 H       723      M_A    0.0000
   5069 C         212.6037   32.7414   90.1239 C.3     724      M_A    0.0000
   5070 C         212.0862   33.9860   90.8341 C.3     724      M_A    0.0000
   5071 O         211.2406   34.7057   89.9381 O.3     724      M_A    0.0000
   5072 H         213.4962   33.0046   89.5449 H       724      M_A    0.0000
   5073 H         211.8501   32.3670   89.4217 H       724      M_A    0.0000
   5074 H         212.9516   34.6042   91.1112 H       724      M_A    0.0000
   5075 H         211.5328   33.7252   91.7461 H       724      M_A    0.0000
   5076 C         209.9893   34.0650   89.8091 C.3     725      M_A    0.0000
   5077 C         208.8978   35.0024   89.3078 C.3     725      M_A    0.0000
   5078 O         208.2222   35.5613   90.4333 O.3     725      M_A    0.0000
   5079 H         210.1004   33.2346   89.1027 H       725      M_A    0.0000
   5080 H         209.7060   33.6410   90.7792 H       725      M_A    0.0000
   5081 H         208.1946   34.4128   88.7029 H       725      M_A    0.0000
   5082 H         209.3144   35.8037   88.6829 H       725      M_A    0.0000
   5083 C         206.8780   35.8523   90.1150 C.3     726      M_A    0.0000
   5084 C         206.7339   37.1081   89.2643 C.3     726      M_A    0.0000
   5085 O         206.4635   38.2144   90.1238 O.3     726      M_A    0.0000
   5086 H         206.4629   34.9990   89.5668 H       726      M_A    0.0000
   5087 H         206.3082   35.9594   91.0450 H       726      M_A    0.0000
   5088 H         205.8932   36.9560   88.5729 H       726      M_A    0.0000
   5089 H         207.6422   37.3005   88.6777 H       726      M_A    0.0000
   5090 C         206.5291   39.4299   89.4089 C.3     727      M_A    0.0000
   5091 C         207.9426   39.7672   88.9511 C.3     727      M_A    0.0000
   5092 O         208.0576   41.1840   88.8276 O.3     727      M_A    0.0000
   5093 H         205.8787   39.3468   88.5307 H       727      M_A    0.0000
   5094 H         206.1349   40.2345   90.0399 H       727      M_A    0.0000
   5095 H         208.1066   39.2910   87.9743 H       727      M_A    0.0000
   5096 H         208.6931   39.3890   89.6581 H       727      M_A    0.0000
   5097 C         209.4058   41.5617   88.6475 C.3     728      M_A    0.0000
   5098 C         209.6396   43.0457   88.9016 C.3     728      M_A    0.0000
   5099 O         209.5522   43.7419   87.6592 O.3     728      M_A    0.0000
   5100 H         210.0211   40.9784   89.3418 H       728      M_A    0.0000
   5101 H         209.7147   41.3003   87.6290 H       728      M_A    0.0000
   5102 H         210.6458   43.1635   89.3276 H       728      M_A    0.0000
   5103 H         208.9064   43.4504   89.6121 H       728      M_A    0.0000
   5104 C         210.0000   45.0732   87.8003 C.3     729      M_A    0.0000
   5105 C         209.2771   45.8218   88.9132 C.3     729      M_A    0.0000
   5106 O         208.5892   46.9347   88.3442 O.3     729      M_A    0.0000
   5107 H         211.0732   45.0525   88.0212 H       729      M_A    0.0000
   5108 H         209.8667   45.5955   86.8461 H       729      M_A    0.0000
   5109 H         210.0308   46.1740   89.6315 H       729      M_A    0.0000
   5110 H         208.5671   45.1693   89.4388 H       729      M_A    0.0000
   5111 C         207.9576   47.6985   89.3494 C.3     730      M_A    0.0000
   5112 C         206.8703   48.6122   88.7976 C.3     730      M_A    0.0000
   5113 O         207.4435   49.8886   88.5183 O.3     730      M_A    0.0000
   5114 H         207.5115   47.0088   90.0748 H       730      M_A    0.0000
   5115 H         208.7160   48.2896   89.8752 H       730      M_A    0.0000
   5116 H         206.0885   48.7117   89.5637 H       730      M_A    0.0000
   5117 H         206.4205   48.1943   87.8870 H       730      M_A    0.0000
   5118 C         208.2219   49.8397   87.3417 C.3     731      M_A    0.0000
   5119 C         208.6246   51.2228   86.8453 C.3     731      M_A    0.0000
   5120 O         209.0517   51.1154   85.4881 O.3     731      M_A    0.0000
   5121 H         209.1263   49.2578   87.5526 H       731      M_A    0.0000
   5122 H         207.6587   49.3096   86.5653 H       731      M_A    0.0000
   5123 H         209.4532   51.5812   87.4720 H       731      M_A    0.0000
   5124 H         207.7912   51.9339   86.9224 H       731      M_A    0.0000
   5125 C         208.9766   52.3675   84.8405 C.3     732      M_A    0.0000
   5126 C         210.3045   52.7918   84.2256 C.3     732      M_A    0.0000
   5127 O         210.4726   54.1948   84.4231 O.3     732      M_A    0.0000
   5128 H         208.2212   52.2998   84.0495 H       732      M_A    0.0000
   5129 H         208.6372   53.1201   85.5612 H       732      M_A    0.0000
   5130 H         210.2691   52.5659   83.1506 H       732      M_A    0.0000
   5131 H         211.1455   52.2454   84.6731 H       732      M_A    0.0000
   5132 C         211.4998   54.6962   83.5947 C.3     733      M_A    0.0000
   5133 C         212.3460   55.7585   84.2852 C.3     733      M_A    0.0000
   5134 O         212.0526   57.0274   83.7024 O.3     733      M_A    0.0000
   5135 H         212.1441   53.8593   83.3027 H       733      M_A    0.0000
   5136 H         211.0518   55.1055   82.6821 H       733      M_A    0.0000
   5137 H         213.4040   55.5078   84.1248 H       733      M_A    0.0000
   5138 H         212.1502   55.7863   85.3655 H       733      M_A    0.0000
   5139 C         213.2014   57.8475   83.6870 C.3     734      M_A    0.0000
   5140 C         213.0419   59.0989   84.5413 C.3     734      M_A    0.0000
   5141 O         213.5563   60.2157   83.8176 O.3     734      M_A    0.0000
   5142 H         214.0465   57.2612   84.0651 H       734      M_A    0.0000
   5143 H         213.4258   58.1245   82.6506 H       734      M_A    0.0000
   5144 H         213.6169   58.9546   85.4667 H       734      M_A    0.0000
   5145 H         211.9897   59.2729   84.8036 H       734      M_A    0.0000
   5146 C         213.4315   61.4012   84.5736 C.3     735      M_A    0.0000
   5147 C         213.3713   62.6502   83.7030 C.3     735      M_A    0.0000
   5148 O         214.5947   63.3696   83.8497 O.3     735      M_A    0.0000
   5149 H         212.5129   61.3342   85.1675 H       735      M_A    0.0000
   5150 H         214.2744   61.4679   85.2709 H       735      M_A    0.0000
   5151 H         212.5299   63.2664   84.0500 H       735      M_A    0.0000
   5152 H         213.2093   62.3946   82.6473 H       735      M_A    0.0000
   5153 C         215.0113   63.9040   82.6114 C.3     736      M_A    0.0000
   5154 C         215.3294   65.3920   82.6904 C.3     736      M_A    0.0000
   5155 O         214.9521   66.0066   81.4592 O.3     736      M_A    0.0000
   5156 H         215.9079   63.3630   82.2885 H       736      M_A    0.0000
   5157 H         214.2280   63.7249   81.8660 H       736      M_A    0.0000
   5158 H         216.4117   65.5005   82.8477 H       736      M_A    0.0000
   5159 H         214.8019   65.8701   83.5267 H       736      M_A    0.0000
   5160 C         215.7028   67.1812   81.2369 C.3     737      M_A    0.0000
   5161 C         214.8952   68.4500   81.4809 C.3     737      M_A    0.0000
   5162 O         215.5714   69.5474   80.8691 O.3     737      M_A    0.0000
   5163 H         216.5652   67.1703   81.9130 H       737      M_A    0.0000
   5164 H         216.0850   67.1691   80.2098 H       737      M_A    0.0000
   5165 H         214.8295   68.6079   82.5665 H       737      M_A    0.0000
   5166 H         213.8784   68.3613   81.0754 H       737      M_A    0.0000
   5167 C         215.8343   70.5618   81.8150 C.3     738      M_A    0.0000
   5168 C         215.8799   71.9507   81.1902 C.3     738      M_A    0.0000
   5169 O         217.1639   72.5217   81.4375 O.3     738      M_A    0.0000
   5170 H         215.0441   70.5365   82.5738 H       738      M_A    0.0000
   5171 H         216.7839   70.3424   82.3161 H       738      M_A    0.0000
   5172 H         215.0996   72.5627   81.6641 H       738      M_A    0.0000
   5173 H         215.6881   71.9099   80.1096 H       738      M_A    0.0000
   5174 C         217.1497   73.9105   81.1853 C.3     739      M_A    0.0000
   5175 C         217.6396   74.2588   79.7852 C.3     739      M_A    0.0000
   5176 O         217.7285   75.6783   79.6715 O.3     739      M_A    0.0000
   5177 H         216.1214   74.2703   81.3045 H       739      M_A    0.0000
   5178 H         217.7678   74.4142   81.9372 H       739      M_A    0.0000
   5179 H         216.9087   73.8697   79.0625 H       739      M_A    0.0000
   5180 H         218.6170   73.8028   79.5783 H       739      M_A    0.0000
   5181 C         216.5888   76.2964   80.2299 C.3     740      M_A    0.0000
   5182 C         216.3841   77.7188   79.7238 C.3     740      M_A    0.0000
   5183 O         216.1011   78.5645   80.8377 O.3     740      M_A    0.0000
   5184 H         215.7106   75.6943   79.9708 H       740      M_A    0.0000
   5185 H         216.6832   76.2945   81.3218 H       740      M_A    0.0000
   5186 H         215.5313   77.7137   79.0305 H       740      M_A    0.0000
   5187 H         217.2708   78.0848   79.1892 H       740      M_A    0.0000
   5188 C         215.5768   79.8016   80.4049 C.3     741      M_A    0.0000
   5189 C         216.6465   80.8776   80.2670 C.3     741      M_A    0.0000
   5190 O         216.0128   82.1560   80.2713 O.3     741      M_A    0.0000
   5191 H         215.0954   79.6487   79.4323 H       741      M_A    0.0000
   5192 H         214.8042   80.1261   81.1111 H       741      M_A    0.0000
   5193 H         217.1665   80.7200   79.3116 H       741      M_A    0.0000
   5194 H         217.3806   80.8188   81.0817 H       741      M_A    0.0000
   5195 C         216.8996   83.1545   79.8136 C.3     742      M_A    0.0000
   5196 C         216.6622   84.5029   80.4820 C.3     742      M_A    0.0000
   5197 O         216.0359   85.3753   79.5427 O.3     742      M_A    0.0000
   5198 H         217.9238   82.8261   80.0237 H       742      M_A    0.0000
   5199 H         216.7968   83.2492   78.7266 H       742      M_A    0.0000
   5200 H         217.6381   84.9111   80.7803 H       742      M_A    0.0000
   5201 H         216.0343   84.4007   81.3773 H       742      M_A    0.0000
   5202 C         215.8277   86.6517   80.1084 C.3     743      M_A    0.0000
   5203 C         214.7731   87.4603   79.3631 C.3     743      M_A    0.0000
   5204 O         215.2906   88.7661   79.1122 O.3     743      M_A    0.0000
   5205 H         215.5078   86.5181   81.1480 H       743      M_A    0.0000
   5206 H         216.7799   87.1942   80.1205 H       743      M_A    0.0000
   5207 H         213.8812   87.5266   80.0019 H       743      M_A    0.0000
   5208 H         214.4940   86.9779   78.4168 H       743      M_A    0.0000
   5209 C         214.7927   89.2748   77.8932 C.3     744      M_A    0.0000
   5210 C         215.4244   90.6074   77.5105 C.3     744      M_A    0.0000
   5211 O         214.6543   91.1947   76.4627 O.3     744      M_A    0.0000
   5212 H         214.9993   88.5414   77.1055 H       744      M_A    0.0000
   5213 H         213.7048   89.3817   77.9711 H       744      M_A    0.0000
   5214 H         216.4471   90.4106   77.1593 H       744      M_A    0.0000
   5215 H         215.4719   91.2892   78.3701 H       744      M_A    0.0000
   5216 C         215.1759   92.4573   76.1071 C.3     745      M_A    0.0000
   5217 C         214.3877   93.1246   74.9869 C.3     745      M_A    0.0000
   5218 O         215.1143   92.9804   73.7674 O.3     745      M_A    0.0000
   5219 H         215.1519   93.1005   76.9940 H       745      M_A    0.0000
   5220 H         216.2243   92.3377   75.8111 H       745      M_A    0.0000
   5221 H         214.2792   94.1898   75.2351 H       745      M_A    0.0000
   5222 H         213.3875   92.6831   74.8833 H       745      M_A    0.0000
   5223 C         214.2528   92.6048   72.7142 C.3     746      M_A    0.0000
   5224 C         214.2091   93.6366   71.5940 C.3     746      M_A    0.0000
   5225 O         212.9197   93.5959   70.9845 O.3     746      M_A    0.0000
   5226 H         214.6042   91.6497   72.3077 H       746      M_A    0.0000
   5227 H         213.2469   92.4444   73.1186 H       746      M_A    0.0000
   5228 H         214.9807   93.3719   70.8575 H       746      M_A    0.0000
   5229 H         214.4147   94.6469   71.9723 H       746      M_A    0.0000
   5230 C         213.0155   93.8366   69.5968 C.3     747      M_A    0.0000
   5231 C         212.0207   94.8836   69.1116 C.3     747      M_A    0.0000
   5232 O         210.8244   94.2228   68.7015 O.3     747      M_A    0.0000
   5233 H         214.0327   94.1806   69.3778 H       747      M_A    0.0000
   5234 H         212.8610   92.8929   69.0614 H       747      M_A    0.0000
   5235 H         212.4700   95.4099   68.2578 H       747      M_A    0.0000
   5236 H         211.7952   95.6161   69.8982 H       747      M_A    0.0000
   5237 C         209.7896   95.1565   68.4782 C.3     748      M_A    0.0000
   5238 C         209.3070   95.8178   69.7632 C.3     748      M_A    0.0000
   5239 O         207.9066   96.0675   69.6512 O.3     748      M_A    0.0000
   5240 H         210.1654   95.9287   67.7975 H       748      M_A    0.0000
   5241 H         208.9560   94.6497   67.9788 H       748      M_A    0.0000
   5242 H         209.8489   96.7666   69.8817 H       748      M_A    0.0000
   5243 H         209.5076   95.1855   70.6384 H       748      M_A    0.0000
   5244 C         207.6568   97.1064   68.7287 C.3     749      M_A    0.0000
   5245 C         206.4980   98.0011   69.1506 C.3     749      M_A    0.0000
   5246 O         205.7701   98.3868   67.9856 O.3     749      M_A    0.0000
   5247 H         208.5648   97.7137   68.6419 H       749      M_A    0.0000
   5248 H         207.4552   96.6668   67.7453 H       749      M_A    0.0000
   5249 H         206.9165   98.8902   69.6429 H       749      M_A    0.0000
   5250 H         205.8324   97.4874   69.8572 H       749      M_A    0.0000
   5251 C         204.7414   99.2948   68.3174 C.3     750      M_A    0.0000
   5252 C         204.7959  100.5729   67.4899 C.3     750      M_A    0.0000
   5253 O         204.8343  101.6905   68.3762 O.3     750      M_A    0.0000
   5254 H         203.7787   98.7993   68.1478 H       750      M_A    0.0000
   5255 H         204.8093   99.5334   69.3848 H       750      M_A    0.0000
   5256 H         203.8889  100.6162   66.8707 H       750      M_A    0.0000
   5257 H         205.6739  100.5855   66.8303 H       750      M_A    0.0000
   5258 C         203.5883  101.8627   69.0169 C.3     751      M_A    0.0000
   5259 C         202.4926  102.3152   68.0597 C.3     751      M_A    0.0000
   5260 O         202.4135  103.7394   68.0952 O.3     751      M_A    0.0000
   5261 H         203.2985  100.9061   69.4662 H       751      M_A    0.0000
   5262 H         203.7041  102.5900   69.8285 H       751      M_A    0.0000
   5263 H         201.5429  101.8782   68.3989 H       751      M_A    0.0000
   5264 H         202.6911  101.9748   67.0347 H       751      M_A    0.0000
   5265 C         203.4901  104.3171   67.3883 C.3     752      M_A    0.0000
   5266 C         203.6730  105.7968   67.7022 C.3     752      M_A    0.0000
   5267 O         203.0852  106.5633   66.6521 O.3     752      M_A    0.0000
   5268 H         204.4057  103.7783   67.6573 H       752      M_A    0.0000
   5269 H         203.3251  104.1771   66.3139 H       752      M_A    0.0000
   5270 H         204.7513  106.0019   67.7579 H       752      M_A    0.0000
   5271 H         203.2136  106.0615   68.6639 H       752      M_A    0.0000
   5272 C         202.4754  107.7284   67.1655 C.3     753      M_A    0.0000
   5273 C         201.1893  108.0903   66.4331 C.3     753      M_A    0.0000
   5274 O         200.8628  109.4481   66.7256 O.3     753      M_A    0.0000
   5275 H         202.2489  107.5590   68.2242 H       753      M_A    0.0000
   5276 H         203.1892  108.5580   67.1065 H       753      M_A    0.0000
   5277 H         200.3925  107.4262   66.7965 H       753      M_A    0.0000
   5278 H         201.2945  107.9539   65.3484 H       753      M_A    0.0000
   5279 C         200.6129  110.1687   65.5378 C.3     754      M_A    0.0000
   5280 C         200.7865  111.6720   65.7145 C.3     754      M_A    0.0000
   5281 O         199.5356  112.3100   65.4613 O.3     754      M_A    0.0000
   5282 H         201.3100  109.8158   64.7694 H       754      M_A    0.0000
   5283 H         199.5968  109.9443   65.1936 H       754      M_A    0.0000
   5284 H         201.5365  112.0156   64.9883 H       754      M_A    0.0000
   5285 H         201.1364  111.9182   66.7260 H       754      M_A    0.0000
   5286 C         199.7111  113.6988   65.2793 C.3     755      M_A    0.0000
   5287 C         198.3897  114.4534   65.2037 C.3     755      M_A    0.0000
   5288 O         198.1482  114.8184   63.8456 O.3     755      M_A    0.0000
   5289 H         200.2956  114.0841   66.1223 H       755      M_A    0.0000
   5290 H         200.2937  113.8662   64.3663 H       755      M_A    0.0000
   5291 H         198.4774  115.3560   65.8247 H       755      M_A    0.0000
   5292 H         197.5585  113.8440   65.5830 H       755      M_A    0.0000
   5293 C         196.8963  114.3306   63.4125 C.3     756      M_A    0.0000
   5294 C         196.5676  114.7424   61.9829 C.3     756      M_A    0.0000
   5295 O         195.4217  115.5923   62.0036 O.3     756      M_A    0.0000
   5296 H         196.9143  113.2367   63.4747 H       756      M_A    0.0000
   5297 H         196.1193  114.6901   64.0966 H       756      M_A    0.0000
   5298 H         196.3486  113.8315   61.4083 H       756      M_A    0.0000
   5299 H         197.4128  115.2618   61.5117 H       756      M_A    0.0000
   5300 C         194.6808  115.4608   60.8092 C.3     757      M_A    0.0000
   5301 C         195.3448  116.1544   59.6262 C.3     757      M_A    0.0000
   5302 O         194.6398  117.3637   59.3502 O.3     757      M_A    0.0000
   5303 H         194.5768  114.3930   60.5859 H       757      M_A    0.0000
   5304 H         193.6754  115.8669   60.9687 H       757      M_A    0.0000
   5305 H         195.2864  115.4802   58.7602 H       757      M_A    0.0000
   5306 H         196.4011  116.3733   59.8320 H       757      M_A    0.0000
   5307 C         195.0017  117.8752   58.0852 C.3     758      M_A    0.0000
   5308 C         195.8339  119.1477   58.1818 C.3     758      M_A    0.0000
   5309 O         195.1707  120.1841   57.4593 O.3     758      M_A    0.0000
   5310 H         195.5802  117.1082   57.5579 H       758      M_A    0.0000
   5311 H         194.0913  118.0631   57.5046 H       758      M_A    0.0000
   5312 H         196.8164  118.9466   57.7321 H       758      M_A    0.0000
   5313 H         195.9801  119.4519   59.2269 H       758      M_A    0.0000
   5314 C         196.0427  121.2704   57.2309 C.3     759      M_A    0.0000
   5315 C         196.3266  122.0723   58.4950 C.3     759      M_A    0.0000
   5316 O         196.6319  123.4162   58.1254 O.3     759      M_A    0.0000
   5317 H         196.9864  120.8759   56.8378 H       759      M_A    0.0000
   5318 H         195.6075  121.9194   56.4625 H       759      M_A    0.0000
   5319 H         197.1899  121.6168   59.0000 H       759      M_A    0.0000
   5320 H         195.4685  122.0562   59.1802 H       759      M_A    0.0000
   5321 C         195.4598  124.1116   57.7579 C.3     760      M_A    0.0000
   5322 C         195.7109  125.5922   57.5006 C.3     760      M_A    0.0000
   5323 O         194.8656  126.3558   58.3598 O.3     760      M_A    0.0000
   5324 H         195.0601  123.6526   56.8466 H       760      M_A    0.0000
   5325 H         194.7111  123.9880   58.5487 H       760      M_A    0.0000
   5326 H         195.4650  125.8013   56.4500 H       760      M_A    0.0000
   5327 H         196.7624  125.8561   57.6758 H       760      M_A    0.0000
   5328 C         194.4505  127.5455   57.7234 C.3     761      M_A    0.0000
   5329 C         193.8389  128.5486   58.6935 C.3     761      M_A    0.0000
   5330 O         192.9611  129.4090   57.9690 O.3     761      M_A    0.0000
   5331 H         195.3239  127.9997   57.2421 H       761      M_A    0.0000
   5332 H         193.7300  127.2944   56.9366 H       761      M_A    0.0000
   5333 H         194.6562  129.1342   59.1374 H       761      M_A    0.0000
   5334 H         193.2899  128.0427   59.4990 H       761      M_A    0.0000
   5335 C         191.7706  128.7329   57.6250 C.3     762      M_A    0.0000
   5336 C         191.1074  129.3072   56.3793 C.3     762      M_A    0.0000
   5337 O         189.7175  128.9860   56.4117 O.3     762      M_A    0.0000
   5338 H         192.0136  127.6792   57.4477 H       762      M_A    0.0000
   5339 H         191.0795  128.7766   58.4744 H       762      M_A    0.0000
   5340 H         191.5785  128.8461   55.4999 H       762      M_A    0.0000
   5341 H         191.2408  130.3957   56.3207 H       762      M_A    0.0000
   5342 C         189.1847  128.9416   55.1052 C.3     763      M_A    0.0000
   5343 C         187.6646  128.8399   55.0934 C.3     763      M_A    0.0000
   5344 O         187.2883  127.6990   54.3236 O.3     763      M_A    0.0000
   5345 H         189.4865  129.8551   54.5805 H       763      M_A    0.0000
   5346 H         189.6237  128.0909   54.5716 H       763      M_A    0.0000
   5347 H         187.2661  129.7533   54.6298 H       763      M_A    0.0000
   5348 H         187.2612  128.7566   56.1115 H       763      M_A    0.0000
   5349 C         186.0688  127.9303   53.6513 C.3     764      M_A    0.0000
   5350 C         184.9368  127.0508   54.1675 C.3     764      M_A    0.0000
   5351 O         184.5758  126.1230   53.1454 O.3     764      M_A    0.0000
   5352 H         185.7956  128.9827   53.7888 H       764      M_A    0.0000
   5353 H         186.2175  127.7626   52.5785 H       764      M_A    0.0000
   5354 H         184.0821  127.7001   54.4035 H       764      M_A    0.0000
   5355 H         185.2321  126.5118   55.0777 H       764      M_A    0.0000
   5356 C         183.3417  125.5061   53.4441 C.3     765      M_A    0.0000
   5357 C         183.3660  124.0003   53.2132 C.3     765      M_A    0.0000
   5358 O         182.2364  123.6408   52.4192 O.3     765      M_A    0.0000
   5359 H         183.1054  125.7033   54.4958 H       765      M_A    0.0000
   5360 H         182.5571  125.9685   52.8344 H       765      M_A    0.0000
   5361 H         183.3089  123.5051   54.1927 H       765      M_A    0.0000
   5362 H         184.2924  123.6870   52.7133 H       765      M_A    0.0000
   5363 C         182.0222  122.2461   52.4580 C.3     766      M_A    0.0000
   5364 C         183.2341  121.4519   51.9867 C.3     766      M_A    0.0000
   5365 O         182.7789  120.2894   51.2960 O.3     766      M_A    0.0000
   5366 H         181.7886  121.9635   53.4907 H       766      M_A    0.0000
   5367 H         181.1494  122.0037   51.8411 H       766      M_A    0.0000
   5368 H         183.8142  121.1586   52.8730 H       766      M_A    0.0000
   5369 H         183.8755  122.0534   51.3288 H       766      M_A    0.0000
   5370 C         183.7307  119.2507   51.3853 C.3     767      M_A    0.0000
   5371 C         185.1527  119.7325   51.1261 C.3     767      M_A    0.0000
   5372 O         186.0561  118.6647   51.4080 O.3     767      M_A    0.0000
   5373 H         183.6762  118.8212   52.3921 H       767      M_A    0.0000
   5374 H         183.4638  118.4624   50.6723 H       767      M_A    0.0000
   5375 H         185.3524  120.5798   51.7970 H       767      M_A    0.0000
   5376 H         185.2786  120.0677   50.0879 H       767      M_A    0.0000
   5377 C         187.3556  119.1606   51.6490 C.3     768      M_A    0.0000
   5378 C         187.8066  120.1645   50.5954 C.3     768      M_A    0.0000
   5379 O         188.9142  120.9019   51.1104 O.3     768      M_A    0.0000
   5380 H         187.3608  119.6461   52.6315 H       768      M_A    0.0000
   5381 H         188.0550  118.3178   51.6906 H       768      M_A    0.0000
   5382 H         186.9667  120.8433   50.3908 H       768      M_A    0.0000
   5383 H         188.0905  119.6631   49.6605 H       768      M_A    0.0000
   5384 C         189.6179  121.5403   50.0665 C.3     769      M_A    0.0000
   5385 C         190.7894  122.3738   50.5709 C.3     769      M_A    0.0000
   5386 O         190.9477  123.5051   49.7159 O.3     769      M_A    0.0000
   5387 H         189.9945  120.7692   49.3849 H       769      M_A    0.0000
   5388 H         188.9213  122.1713   49.5028 H       769      M_A    0.0000
   5389 H         191.6921  121.7480   50.5358 H       769      M_A    0.0000
   5390 H         190.6292  122.7040   51.6060 H       769      M_A    0.0000
   5391 C         191.4636  124.6055   50.4340 C.3     770      M_A    0.0000
   5392 C         192.8279  125.0527   49.9243 C.3     770      M_A    0.0000
   5393 O         193.7778  124.9174   50.9803 O.3     770      M_A    0.0000
   5394 H         190.7564  125.4375   50.3413 H       770      M_A    0.0000
   5395 H         191.5264  124.3388   51.4952 H       770      M_A    0.0000
   5396 H         192.7497  126.1068   49.6229 H       770      M_A    0.0000
   5397 H         193.1443  124.4603   49.0554 H       770      M_A    0.0000
   5398 C         195.0266  124.4928   50.4774 C.3     771      M_A    0.0000
   5399 C         196.2020  125.1380   51.2008 C.3     771      M_A    0.0000
   5400 O         197.3550  125.0557   50.3645 O.3     771      M_A    0.0000
   5401 H         195.0900  123.4046   50.5909 H       771      M_A    0.0000
   5402 H         195.0731  124.7188   49.4060 H       771      M_A    0.0000
   5403 H         196.3744  124.5819   52.1330 H       771      M_A    0.0000
   5404 H         195.9917  126.1868   51.4497 H       771      M_A    0.0000
   5405 C         198.5363  125.1431   51.1324 C.3     772      M_A    0.0000
   5406 C         199.6743  125.8267   50.3848 C.3     772      M_A    0.0000
   5407 O         200.9146  125.3581   50.9119 O.3     772      M_A    0.0000
   5408 H         198.3127  125.7120   52.0420 H       772      M_A    0.0000
   5409 H         198.8373  124.1341   51.4365 H       772      M_A    0.0000
   5410 H         199.5841  126.9103   50.5452 H       772      M_A    0.0000
   5411 H         199.6233  125.6245   49.3066 H       772      M_A    0.0000
   5412 C         201.8474  126.4134   51.0070 C.3     773      M_A    0.0000
   5413 C         203.2791  125.9569   50.7556 C.3     773      M_A    0.0000
   5414 O         204.1266  126.5446   51.7417 O.3     773      M_A    0.0000
   5415 H         201.5795  127.1757   50.2667 H       773      M_A    0.0000
   5416 H         201.7662  126.8705   51.9997 H       773      M_A    0.0000
   5417 H         203.5747  126.3003   49.7542 H       773      M_A    0.0000
   5418 H         203.3624  124.8625   50.7918 H       773      M_A    0.0000
   5419 C         205.2787  125.7547   51.9449 C.3     774      M_A    0.0000
   5420 C         206.0049  126.0965   53.2399 C.3     774      M_A    0.0000
   5421 O         207.0843  126.9801   52.9398 O.3     774      M_A    0.0000
   5422 H         204.9728  124.7028   51.9729 H       774      M_A    0.0000
   5423 H         205.9521  125.8827   51.0898 H       774      M_A    0.0000
   5424 H         206.3933  125.1621   53.6689 H       774      M_A    0.0000
   5425 H         205.3275  126.5635   53.9673 H       774      M_A    0.0000
   5426 C         207.7869  127.3270   54.1139 C.3     775      M_A    0.0000
   5427 C         208.1994  128.7935   54.1406 C.3     775      M_A    0.0000
   5428 O         209.5730  128.8756   54.5180 O.3     775      M_A    0.0000
   5429 H         207.1400  127.1214   54.9742 H       775      M_A    0.0000
   5430 H         208.6708  126.6850   54.2013 H       775      M_A    0.0000
   5431 H         207.5748  129.3091   54.8835 H       775      M_A    0.0000
   5432 H         208.0490  129.2694   53.1623 H       775      M_A    0.0000
   5433 C         210.2929  127.7648   54.0278 C.3     776      M_A    0.0000
   5434 C         211.7979  128.0012   54.0092 C.3     776      M_A    0.0000
   5435 O         212.1823  128.3998   52.6942 O.3     776      M_A    0.0000
   5436 H         210.0737  126.9037   54.6693 H       776      M_A    0.0000
   5437 H         209.9360  127.5276   53.0191 H       776      M_A    0.0000
   5438 H         212.2939  127.0571   54.2750 H       776      M_A    0.0000
   5439 H         212.0911  128.7703   54.7363 H       776      M_A    0.0000
   5440 C         212.1152  129.8032   52.5582 C.3     777      M_A    0.0000
   5441 C         212.8905  130.3145   51.3503 C.3     777      M_A    0.0000
   5442 O         212.8242  131.7397   51.3338 O.3     777      M_A    0.0000
   5443 H         211.0620  130.0878   52.4542 H       777      M_A    0.0000
   5444 H         212.4964  130.2673   53.4749 H       777      M_A    0.0000
   5445 H         212.4182  129.9066   50.4455 H       777      M_A    0.0000
   5446 H         213.9383  129.9868   51.3793 H       777      M_A    0.0000
   5447 C         213.8128  132.2757   50.4805 C.3     778      M_A    0.0000
   5448 C         213.8271  133.7993   50.4816 C.3     778      M_A    0.0000
   5449 O         214.8696  134.2476   49.6167 O.3     778      M_A    0.0000
   5450 H         214.7898  131.9082   50.8141 H       778      M_A    0.0000
   5451 H         213.6457  131.9009   49.4643 H       778      M_A    0.0000
   5452 H         214.0213  134.1368   51.5093 H       778      M_A    0.0000
   5453 H         212.8628  134.2087   50.1522 H       778      M_A    0.0000
   5454 C         216.1026  134.2931   50.3026 C.3     779      M_A    0.0000
   5455 C         216.1620  135.4156   51.3312 C.3     779      M_A    0.0000
   5456 O         217.2822  136.2484   51.0353 O.3     779      M_A    0.0000
   5457 H         216.2476  133.3334   50.8114 H       779      M_A    0.0000
   5458 H         216.9112  134.4079   49.5719 H       779      M_A    0.0000
   5459 H         216.2846  134.9609   52.3242 H       779      M_A    0.0000
   5460 H         215.2392  136.0110   51.3275 H       779      M_A    0.0000
   5461 C         217.0129  137.0698   49.9193 C.3     780      M_A    0.0000
   5462 C         218.2691  137.7151   49.3475 C.3     780      M_A    0.0000
   5463 O         218.0815  139.1291   49.3120 O.3     780      M_A    0.0000
   5464 H         216.5430  136.4531   49.1449 H       780      M_A    0.0000
   5465 H         216.2924  137.8418   50.2125 H       780      M_A    0.0000
   5466 H         218.4153  137.3304   48.3284 H       780      M_A    0.0000
   5467 H         219.1547  137.4681   49.9481 H       780      M_A    0.0000
   5468 C         218.7388  139.6922   48.1968 C.3     781      M_A    0.0000
   5469 C         219.3851  141.0355   48.5119 C.3     781      M_A    0.0000
   5470 O         219.1561  141.9215   47.4171 O.3     781      M_A    0.0000
   5471 H         219.5133  138.9914   47.8653 H       781      M_A    0.0000
   5472 H         218.0181  139.8031   47.3787 H       781      M_A    0.0000
   5473 H         220.4640  140.8716   48.6424 H       781      M_A    0.0000
   5474 H         218.9797  141.4675   49.4367 H       781      M_A    0.0000
   5475 C         220.0038  143.0471   47.4999 C.3     782      M_A    0.0000
   5476 C         220.0092  143.6783   48.8866 C.3     782      M_A    0.0000
   5477 O         220.9179  144.7784   48.8851 O.3     782      M_A    0.0000
   5478 H         221.0217  142.7293   47.2473 H       782      M_A    0.0000
   5479 H         219.6898  143.7836   46.7515 H       782      M_A    0.0000
   5480 H         220.3429  142.9170   49.6055 H       782      M_A    0.0000
   5481 H         219.0059  144.0196   49.1748 H       782      M_A    0.0000
   5482 C         222.0514  144.4886   48.0952 C.3     783      M_A    0.0000
   5483 C         223.0727  145.6193   48.0952 C.3     783      M_A    0.0000
   5484 O         223.3640  145.9727   46.7439 O.3     783      M_A    0.0000
   5485 H         222.5220  143.5812   48.4904 H       783      M_A    0.0000
   5486 H         221.7252  144.2751   47.0710 H       783      M_A    0.0000
   5487 H         223.9829  145.2555   48.5923 H       783      M_A    0.0000
   5488 H         222.6991  146.4958   48.6413 H       783      M_A    0.0000
   5489 C         223.7977  147.3135   46.6608 C.3     784      M_A    0.0000
   5490 C         224.7974  147.5392   45.5335 C.3     784      M_A    0.0000
   5491 O         225.2992  148.8716   45.6268 O.3     784      M_A    0.0000
   5492 H         222.9201  147.9481   46.4934 H       784      M_A    0.0000
   5493 H         224.2398  147.6036   47.6207 H       784      M_A    0.0000
   5494 H         224.2701  147.4030   44.5789 H       784      M_A    0.0000
   5495 H         225.6264  146.8206   45.5840 H       784      M_A    0.0000
   5496 C         225.9362  149.2507   44.4255 C.3     785      M_A    0.0000
   5497 C         226.9722  150.3489   44.6305 C.3     785      M_A    0.0000
   5498 O         226.6128  151.4725   43.8279 O.3     785      M_A    0.0000
   5499 H         226.4297  148.3670   44.0053 H       785      M_A    0.0000
   5500 H         225.1752  149.5792   43.7085 H       785      M_A    0.0000
   5501 H         227.9493  149.9583   44.3131 H       785      M_A    0.0000
   5502 H         227.0372  150.6457   45.6859 H       785      M_A    0.0000
   5503 C         227.6075  152.4719   43.8940 C.3     786      M_A    0.0000
   5504 C         227.8307  152.9865   45.3106 C.3     786      M_A    0.0000
   5505 O         228.6974  154.1186   45.2549 O.3     786      M_A    0.0000
   5506 H         228.5447  152.0487   43.5151 H       786      M_A    0.0000
   5507 H         227.3244  153.2987   43.2327 H       786      M_A    0.0000
   5508 H         228.3008  152.1826   45.8944 H       786      M_A    0.0000
   5509 H         226.8820  153.2621   45.7903 H       786      M_A    0.0000
   5510 C         230.0121  153.7253   44.9242 C.3     787      M_A    0.0000
   5511 C         230.9736  154.9039   44.8355 C.3     787      M_A    0.0000
   5512 O         230.9114  155.4469   43.5175 O.3     787      M_A    0.0000
   5513 H         230.3666  153.0313   45.6947 H       787      M_A    0.0000
   5514 H         229.9915  153.1830   43.9720 H       787      M_A    0.0000
   5515 H         231.9874  154.5320   45.0405 H       787      M_A    0.0000
   5516 H         230.7263  155.6785   45.5737 H       787      M_A    0.0000
   5517 C         229.8675  156.3916   43.4154 C.3     788      M_A    0.0000
   5518 C         230.3709  157.7903   43.0811 C.3     788      M_A    0.0000
   5519 O         229.7125  158.7287   43.9305 O.3     788      M_A    0.0000
   5520 H         229.1811  156.0605   42.6280 H       788      M_A    0.0000
   5521 H         229.3094  156.4072   44.3585 H       788      M_A    0.0000
   5522 H         230.1247  157.9982   42.0303 H       788      M_A    0.0000
   5523 H         231.4590  157.8653   43.2096 H       788      M_A    0.0000
   5524 C         229.6637  160.0026   43.3240 C.3     789      M_A    0.0000
   5525 C         229.6887  161.1384   44.3393 C.3     789      M_A    0.0000
   5526 O         229.0474  162.2775   43.7674 O.3     789      M_A    0.0000
   5527 H         230.5286  160.0987   42.6580 H       789      M_A    0.0000
   5528 H         228.7601  160.0678   42.7074 H       789      M_A    0.0000
   5529 H         230.7392  161.3720   44.5625 H       789      M_A    0.0000
   5530 H         229.1853  160.8521   45.2724 H       789      M_A    0.0000
   5531 C         229.6090  163.4713   44.2696 C.3     790      M_A    0.0000
   5532 C         228.9543  164.7186   43.6891 C.3     790      M_A    0.0000
   5533 O         229.9721  165.6733   43.3917 O.3     790      M_A    0.0000
   5534 H         229.4864  163.4764   45.3585 H       790      M_A    0.0000
   5535 H         230.6839  163.4753   44.0557 H       790      M_A    0.0000
   5536 H         228.2677  165.1253   44.4447 H       790      M_A    0.0000
   5537 H         228.3814  164.4844   42.7818 H       790      M_A    0.0000
   5538 C         230.5167  166.2088   44.5789 C.3     791      M_A    0.0000
   5539 C         230.4575  167.7307   44.6186 C.3     791      M_A    0.0000
   5540 O         231.7605  168.2464   44.3503 O.3     791      M_A    0.0000
   5541 H         229.9519  165.8063   45.4274 H       791      M_A    0.0000
   5542 H         231.5539  165.8690   44.6784 H       791      M_A    0.0000
   5543 H         230.1346  168.0324   45.6249 H       791      M_A    0.0000
   5544 H         229.7395  168.1225   43.8858 H       791      M_A    0.0000
   5545 C         231.6830  169.5655   43.8535 C.3     792      M_A    0.0000
   5546 C         233.0542  170.1894   43.6257 C.3     792      M_A    0.0000
   5547 O         232.9355  171.6071   43.7341 O.3     792      M_A    0.0000
   5548 H         231.1378  169.5426   42.9032 H       792      M_A    0.0000
   5549 H         231.1030  170.1755   44.5553 H       792      M_A    0.0000
   5550 H         233.3881  169.9172   42.6146 H       792      M_A    0.0000
   5551 H         233.7891  169.8168   44.3519 H       792      M_A    0.0000
   5552 C         234.1913  172.1945   44.0001 C.3     793      M_A    0.0000
   5553 C         234.2565  173.6578   43.5807 C.3     793      M_A    0.0000
   5554 O         235.2452  173.7980   42.5615 O.3     793      M_A    0.0000
   5555 H         234.3829  172.1218   45.0766 H       793      M_A    0.0000
   5556 H         234.9686  171.6194   43.4842 H       793      M_A    0.0000
   5557 H         234.5388  174.2518   44.4613 H       793      M_A    0.0000
   5558 H         233.2843  174.0125   43.2131 H       793      M_A    0.0000
   5559 C         235.8663  175.0633   42.6390 C.3     794      M_A    0.0000
   5560 C         234.9893  176.1832   42.0929 C.3     794      M_A    0.0000
   5561 O         235.8117  177.0959   41.3674 O.3     794      M_A    0.0000
   5562 H         236.0959  175.2688   43.6906 H       794      M_A    0.0000
   5563 H         236.8154  175.0269   42.0921 H       794      M_A    0.0000
   5564 H         234.5220  176.6957   42.9455 H       794      M_A    0.0000
   5565 H         234.1979  175.7899   41.4410 H       794      M_A    0.0000
   5566 C         235.0748  177.7241   40.3403 C.3     795      M_A    0.0000
   5567 C         235.2652  179.2356   40.3201 C.3     795      M_A    0.0000
   5568 O         234.0036  179.8524   40.0675 O.3     795      M_A    0.0000
   5569 H         235.4021  177.3092   39.3802 H       795      M_A    0.0000
   5570 H         234.0137  177.4793   40.4641 H       795      M_A    0.0000
   5571 H         235.9700  179.4789   39.5126 H       795      M_A    0.0000
   5572 H         235.6785  179.5996   41.2702 H       795      M_A    0.0000
   5573 C         234.1785  181.1641   39.5760 C.3     796      M_A    0.0000
   5574 C         234.1732  182.2120   40.6821 C.3     796      M_A    0.0000
   5575 O         234.0733  183.5049   40.0870 O.3     796      M_A    0.0000
   5576 H         235.1372  181.2071   39.0468 H       796      M_A    0.0000
   5577 H         233.3872  181.3792   38.8490 H       796      M_A    0.0000
   5578 H         235.1183  182.1262   41.2364 H       796      M_A    0.0000
   5579 H         233.3398  182.0534   41.3795 H       796      M_A    0.0000
   5580 C         234.8233  183.5642   38.8926 C.3     797      M_A    0.0000
   5581 C         235.2941  184.9754   38.5635 C.3     797      M_A    0.0000
   5582 O         234.3615  185.5705   37.6625 O.3     797      M_A    0.0000
   5583 H         235.6970  182.9121   39.0034 H       797      M_A    0.0000
   5584 H         234.2149  183.1686   38.0714 H       797      M_A    0.0000
   5585 H         236.2817  184.9019   38.0867 H       797      M_A    0.0000
   5586 H         235.3851  185.5885   39.4701 H       797      M_A    0.0000
   5587 C         234.7557  186.8849   37.3318 C.3     798      M_A    0.0000
   5588 C         234.7542  187.8195   38.5351 C.3     798      M_A    0.0000
   5589 O         234.4156  189.1334   38.0936 O.3     798      M_A    0.0000
   5590 H         235.7670  186.8442   36.9114 H       798      M_A    0.0000
   5591 H         234.0873  187.2709   36.5537 H       798      M_A    0.0000
   5592 H         235.7644  187.8181   38.9682 H       798      M_A    0.0000
   5593 H         234.0418  187.4847   39.3009 H       798      M_A    0.0000
   5594 C         235.2989  189.5626   37.0795 C.3     799      M_A    0.0000
   5595 C         235.5101  191.0715   37.0837 C.3     799      M_A    0.0000
   5596 O         235.9752  191.4720   35.7956 O.3     799      M_A    0.0000
   5597 H         236.2636  189.0657   37.2320 H       799      M_A    0.0000
   5598 H         234.9079  189.2392   36.1081 H       799      M_A    0.0000
   5599 H         236.2665  191.3069   37.8455 H       799      M_A    0.0000
   5600 H         234.5825  191.6047   37.3313 H       799      M_A    0.0000
   5601 C         237.3014  191.0366   35.5860 C.3     800      M_A    0.0000
   5602 C         238.3056  191.7623   36.4728 C.3     800      M_A    0.0000
   5603 O         239.2788  192.3925   35.6411 O.3     800      M_A    0.0000
   5604 H         237.3474  189.9624   35.7981 H       800      M_A    0.0000
   5605 H         237.5589  191.1786   34.5302 H       800      M_A    0.0000
   5606 H         238.7903  191.0167   37.1185 H       800      M_A    0.0000
   5607 H         237.8118  192.5104   37.1073 H       800      M_A    0.0000
   5608 C         240.0823  193.2758   36.3940 C.3     801      M_A    0.0000
   5609 C         240.8858  194.2300   35.5192 C.3     801      M_A    0.0000
   5610 O         241.8516  194.8937   36.3333 O.3     801      M_A    0.0000
   5611 H         239.4278  193.8586   37.0520 H       801      M_A    0.0000
   5612 H         240.7556  192.6891   37.0292 H       801      M_A    0.0000
   5613 H         240.1903  194.9640   35.0886 H       801      M_A    0.0000
   5614 H         241.3867  193.6965   34.7004 H       801      M_A    0.0000
   5615 C         243.0079  195.2026   35.5848 C.3     802      M_A    0.0000
   5616 C         243.7330  196.4372   36.1059 C.3     802      M_A    0.0000
   5617 O         243.9946  197.3113   35.0089 O.3     802      M_A    0.0000
   5618 H         243.6861  194.3431   35.6308 H       802      M_A    0.0000
   5619 H         242.7240  195.3466   34.5361 H       802      M_A    0.0000
   5620 H         244.6795  196.1100   36.5586 H       802      M_A    0.0000
   5621 H         243.1389  196.9581   36.8686 H       802      M_A    0.0000
   5622 C         244.9939  196.7737   34.1693 C.3     803      M_A    0.0000
   5623 C         246.3803  197.3249   34.4781 C.3     803      M_A    0.0000
   5624 O         246.6352  198.4321   33.6150 O.3     803      M_A    0.0000
   5625 H         245.0037  195.6858   34.3008 H       803      M_A    0.0000
   5626 H         244.7298  196.9803   33.1259 H       803      M_A    0.0000
   5627 H         247.1129  196.5272   34.2912 H       803      M_A    0.0000
   5628 H         246.4614  197.6392   35.5273 H       803      M_A    0.0000
   5629 C         247.0616  199.5553   34.3562 C.3     804      M_A    0.0000
   5630 C         247.9626  200.4834   33.5512 C.3     804      M_A    0.0000
   5631 O         248.6803  201.3221   34.4553 O.3     804      M_A    0.0000
   5632 H         246.1736  200.1101   34.6796 H       804      M_A    0.0000
   5633 H         247.5837  199.2095   35.2557 H       804      M_A    0.0000
   5634 H         247.3243  201.0952   32.8984 H       804      M_A    0.0000
   5635 H         248.6651  199.9161   32.9260 H       804      M_A    0.0000
   5636 C         249.9358  201.6778   33.9168 C.3     805      M_A    0.0000
   5637 C         250.5155  202.9331   34.5567 C.3     805      M_A    0.0000
   5638 O         250.7229  203.9115   33.5391 O.3     805      M_A    0.0000
   5639 H         250.6268  200.8425   34.0769 H       805      M_A    0.0000
   5640 H         249.8306  201.8201   32.8352 H       805      M_A    0.0000
   5641 H         251.4751  202.6660   35.0213 H       805      M_A    0.0000
   5642 H         249.8476  203.3322   35.3318 H       805      M_A    0.0000
   5643 C         250.9418  205.1848   34.1077 C.3     806      M_A    0.0000
   5644 C         252.0932  205.9334   33.4478 C.3     806      M_A    0.0000
   5645 O         253.1013  206.1777   34.4275 O.3     806      M_A    0.0000
   5646 H         250.0232  205.7722   33.9977 H       806      M_A    0.0000
   5647 H         251.1344  205.0663   35.1801 H       806      M_A    0.0000
   5648 H         251.7036  206.8870   33.0646 H       806      M_A    0.0000
   5649 H         252.5137  205.3620   32.6095 H       806      M_A    0.0000
   5650 C         254.3836  205.9081   33.9024 C.3     807      M_A    0.0000
   5651 C         255.3835  205.4957   34.9755 C.3     807      M_A    0.0000
   5652 O         256.6911  205.4898   34.4045 O.3     807      M_A    0.0000
   5653 H         254.2909  205.0987   33.1694 H       807      M_A    0.0000
   5654 H         254.7443  206.7971   33.3726 H       807      M_A    0.0000
   5655 H         255.1187  204.4850   35.3167 H       807      M_A    0.0000
   5656 H         255.3516  206.1778   35.8356 H       807      M_A    0.0000
   5657 C         256.6486  205.0498   33.0638 C.3     808      M_A    0.0000
   5658 C         257.8372  204.1705   32.6957 C.3     808      M_A    0.0000
   5659 O         258.9250  205.0095   32.3102 O.3     808      M_A    0.0000
   5660 H         255.7236  204.4804   32.9189 H       808      M_A    0.0000
   5661 H         256.6078  205.9242   32.4044 H       808      M_A    0.0000
   5662 H         257.5392  203.5314   31.8526 H       808      M_A    0.0000
   5663 H         258.1359  203.5293   33.5357 H       808      M_A    0.0000
   5664 C         259.9181  204.2631   31.6398 C.3     809      M_A    0.0000
   5665 C         260.8718  203.5600   32.5976 C.3     809      M_A    0.0000
   5666 O         262.0204  204.3850   32.7874 O.3     809      M_A    0.0000
   5667 H         259.4201  203.5127   31.0154 H       809      M_A    0.0000
   5668 H         260.4764  204.9319   30.9749 H       809      M_A    0.0000
   5669 H         261.1676  202.6042   32.1426 H       809      M_A    0.0000
   5670 H         260.3909  203.3565   33.5637 H       809      M_A    0.0000
   5671 C         262.9884  203.7206   33.5711 C.3     810      M_A    0.0000
   5672 C         263.6084  204.6238   34.6300 C.3     810      M_A    0.0000
   5673 O         264.9904  204.8049   34.3248 O.3     810      M_A    0.0000
   5674 H         262.5051  202.8699   34.0647 H       810      M_A    0.0000
   5675 H         263.7679  203.3235   32.9110 H       810      M_A    0.0000
   5676 H         263.5013  204.1280   35.6050 H       810      M_A    0.0000
   5677 H         263.1017  205.5973   34.6721 H       810      M_A    0.0000
   5678 C         265.3516  206.1652   34.4329 C.3     811      M_A    0.0000
   5679 C         266.7751  206.4347   33.9613 C.3     811      M_A    0.0000
   5680 O         267.4989  207.0556   35.0226 O.3     811      M_A    0.0000
   5681 H         264.6556  206.7542   33.8250 H       811      M_A    0.0000
   5682 H         265.2333  206.4821   35.4753 H       811      M_A    0.0000
   5683 H         266.7247  207.1106   33.0961 H       811      M_A    0.0000
   5684 H         267.2776  205.5073   33.6554 H       811      M_A    0.0000
   5685 C         268.8713  206.7341   34.9462 C.3     812      M_A    0.0000
   5686 C         269.7288  207.9163   34.5118 C.3     812      M_A    0.0000
   5687 O         270.7108  207.4536   33.5860 O.3     812      M_A    0.0000
   5688 H         269.2004  206.3976   35.9358 H       812      M_A    0.0000
   5689 H         269.0017  205.8978   34.2500 H       812      M_A    0.0000
   5690 H         270.2197  208.3269   35.4054 H       812      M_A    0.0000
   5691 H         269.1190  208.7048   34.0508 H       812      M_A    0.0000
   5692 C         270.4048  206.1483   33.1442 C.3     813      M_A    0.0000
   5693 C         271.6456  205.3513   32.7610 C.3     813      M_A    0.0000
   5694 O         271.8757  205.5077   31.3615 O.3     813      M_A    0.0000
   5695 H         269.8800  205.6268   33.9526 H       813      M_A    0.0000
   5696 H         269.7203  206.2137   32.2909 H       813      M_A    0.0000
   5697 H         271.4562  204.2941   32.9942 H       813      M_A    0.0000
   5698 H         272.5259  205.6848   33.3266 H       813      M_A    0.0000
   5699 C         273.1419  204.9967   31.0035 C.3     814      M_A    0.0000
   5700 C         274.2353  206.0573   31.0389 C.3     814      M_A    0.0000
   5701 O         275.0053  205.9607   29.8416 O.3     814      M_A    0.0000
   5702 H         273.3987  204.1944   31.7044 H       814      M_A    0.0000
   5703 H         273.0766  204.5557   30.0023 H       814      M_A    0.0000
   5704 H         274.8729  205.8595   31.9119 H       814      M_A    0.0000
   5705 H         273.8114  207.0660   31.1332 H       814      M_A    0.0000
   5706 C         275.8666  207.0714   29.7108 C.3     815      M_A    0.0000
   5707 C         276.8694  206.9073   28.5756 C.3     815      M_A    0.0000
   5708 O         277.7884  207.9981   28.6156 O.3     815      M_A    0.0000
   5709 H         275.2540  207.9601   29.5216 H       815      M_A    0.0000
   5710 H         276.3931  207.2260   30.6596 H       815      M_A    0.0000
   5711 H         276.3144  206.9191   27.6270 H       815      M_A    0.0000
   5712 H         277.4115  205.9555   28.6550 H       815      M_A    0.0000
   5713 C         277.2340  209.1410   28.0000 C.3     816      M_A    0.0000
   5714 C         278.0885  210.3871   28.1959 C.3     816      M_A    0.0000
   5715 O         277.2265  211.5143   28.3442 O.3     816      M_A    0.0000
   5716 H         277.1358  208.9393   26.9273 H       816      M_A    0.0000
   5717 H         276.2276  209.3071   28.4008 H       816      M_A    0.0000
   5718 H         278.7183  210.5114   27.3038 H       816      M_A    0.0000
   5719 H         278.7386  210.2922   29.0759 H       816      M_A    0.0000
   5720 C         276.6038  211.8317   27.1178 C.3     817      M_A    0.0000
   5721 C         277.4475  212.7598   26.2528 C.3     817      M_A    0.0000
   5722 O         276.6235  213.8287   25.7899 O.3     817      M_A    0.0000
   5723 H         276.4249  210.8982   26.5723 H       817      M_A    0.0000
   5724 H         275.6292  212.2894   27.3225 H       817      M_A    0.0000
   5725 H         277.8243  212.1796   25.3988 H       817      M_A    0.0000
   5726 H         278.3036  213.1599   26.8124 H       817      M_A    0.0000
   5727 C         275.8992  214.3997   26.8584 C.3     818      M_A    0.0000
   5728 C         275.6646  213.4187   28.0003 C.3     818      M_A    0.0000
   5729 O         276.0109  214.0557   29.2292 O.3     818      M_A    0.0000
   5730 H         276.4648  215.2593   27.2355 H       818      M_A    0.0000
   5731 H         274.9412  214.7725   26.4787 H       818      M_A    0.0000
   5732 H         276.3104  212.5446   27.8359 H       818      M_A    0.0000
   5733 H         274.6192  213.0837   28.0317 H       818      M_A    0.0000
   5734 C         277.4127  214.1063   29.3878 C.3     819      M_A    0.0000
   5735 C         277.8315  214.4198   30.8188 C.3     819      M_A    0.0000
   5736 O         279.1481  214.9695   30.8001 O.3     819      M_A    0.0000
   5737 H         277.8259  213.1332   29.0990 H       819      M_A    0.0000
   5738 H         277.8206  214.8577   28.7022 H       819      M_A    0.0000
   5739 H         277.8255  213.4801   31.3886 H       819      M_A    0.0000
   5740 H         277.1362  215.1247   31.2939 H       819      M_A    0.0000
   5741 C         279.3375  215.8489   31.8880 C.3     820      M_A    0.0000
   5742 C         280.4865  216.8239   31.6627 C.3     820      M_A    0.0000
   5743 O         281.6906  216.2322   32.1483 O.3     820      M_A    0.0000
   5744 H         278.4113  216.4153   32.0366 H       820      M_A    0.0000
   5745 H         279.5158  215.2589   32.7943 H       820      M_A    0.0000
   5746 H         280.2674  217.7432   32.2239 H       820      M_A    0.0000
   5747 H         280.5938  217.0770   30.5995 H       820      M_A    0.0000
   5748 C         281.6860  216.1761   33.5588 C.3     821      M_A    0.0000
   5749 C         283.0815  216.0011   34.1448 C.3     821      M_A    0.0000
   5750 O         283.4367  214.6209   34.0765 O.3     821      M_A    0.0000
   5751 H         281.2530  217.1088   33.9377 H       821      M_A    0.0000
   5752 H         281.0366  215.3535   33.8792 H       821      M_A    0.0000
   5753 H         283.0539  216.3299   35.1932 H       821      M_A    0.0000
   5754 H         283.8212  216.6071   33.6047 H       821      M_A    0.0000
   5755 C         283.4866  214.1838   32.7352 C.3     822      M_A    0.0000
   5756 C         284.8679  213.6842   32.3307 C.3     822      M_A    0.0000
   5757 O         285.2846  214.3877   31.1614 O.3     822      M_A    0.0000
   5758 H         282.7617  213.3712   32.6120 H       822      M_A    0.0000
   5759 H         283.1772  215.0075   32.0818 H       822      M_A    0.0000
   5760 H         284.7910  212.6094   32.1143 H       822      M_A    0.0000
   5761 H         285.5983  213.8299   33.1378 H       822      M_A    0.0000
   5762 C         286.0961  213.5676   30.3479 C.3     823      M_A    0.0000
   5763 C         287.2138  214.3427   29.6613 C.3     823      M_A    0.0000
   5764 O         288.2747  213.4396   29.3536 O.3     823      M_A    0.0000
   5765 H         286.5367  212.7874   30.9787 H       823      M_A    0.0000
   5766 H         285.4650  213.0740   29.6001 H       823      M_A    0.0000
   5767 H         287.5691  215.1155   30.3574 H       823      M_A    0.0000
   5768 H         286.8575  214.8310   28.7444 H       823      M_A    0.0000
   5769 C         288.2888  212.3581   30.2607 C.3     824      M_A    0.0000
   5770 C         289.6974  211.9760   30.6981 C.3     824      M_A    0.0000
   5771 O         290.0326  210.7182   30.1139 O.3     824      M_A    0.0000
   5772 H         287.7049  212.6430   31.1432 H       824      M_A    0.0000
   5773 H         287.7921  211.4988   29.7962 H       824      M_A    0.0000
   5774 H         289.7027  211.8939   31.7941 H       824      M_A    0.0000
   5775 H         290.4299  212.7373   30.3982 H       824      M_A    0.0000
   5776 C         291.0755  210.0956   30.8331 C.3     825      M_A    0.0000
   5777 C         292.4108  210.8110   30.6699 C.3     825      M_A    0.0000
   5778 O         293.4536  209.8372   30.6616 O.3     825      M_A    0.0000
   5779 H         290.8021  210.0856   31.8942 H       825      M_A    0.0000
   5780 H         291.1625  209.0544   30.5022 H       825      M_A    0.0000
   5781 H         292.5391  211.4906   31.5240 H       825      M_A    0.0000
   5782 H         292.4386  211.4000   29.7434 H       825      M_A    0.0000
   5783 C         294.6808  210.4163   31.0505 C.3     826      M_A    0.0000
   5784 C         295.8845  209.7063   30.4435 C.3     826      M_A    0.0000
   5785 O         296.8293  209.4406   31.4791 O.3     826      M_A    0.0000
   5786 H         294.6830  211.4637   30.7285 H       826      M_A    0.0000
   5787 H         294.7480  210.4043   32.1443 H       826      M_A    0.0000
   5788 H         296.3295  210.3735   29.6919 H       826      M_A    0.0000
   5789 H         295.5905  208.7688   29.9527 H       826      M_A    0.0000
   5790 C         297.4417  210.6355   31.9149 C.3     827      M_A    0.0000
   5791 C         298.8892  210.7560   31.4547 C.3     827      M_A    0.0000
   5792 O         299.7253  210.0802   32.3928 O.3     827      M_A    0.0000
   5793 H         296.8680  211.4800   31.5167 H       827      M_A    0.0000
   5794 H         297.3885  210.6832   33.0085 H       827      M_A    0.0000
   5795 H         299.1481  211.8236   31.4225 H       827      M_A    0.0000
   5796 H         299.0271  210.3294   30.4522 H       827      M_A    0.0000
   5797 C         300.8771  209.5684   31.7571 C.3     828      M_A    0.0000
   5798 C         300.5672  208.3973   30.8331 C.3     828      M_A    0.0000
   5799 O         301.5422  207.3773   31.0444 O.3     828      M_A    0.0000
   5800 H         301.3329  210.3751   31.1721 H       828      M_A    0.0000
   5801 H         301.5993  209.2636   32.5230 H       828      M_A    0.0000
   5802 H         300.6208  208.7585   29.7964 H       828      M_A    0.0000
   5803 H         299.5602  207.9989   31.0159 H       828      M_A    0.0000
   5804 C         301.2957  206.6938   32.2547 C.3     829      M_A    0.0000
   5805 C         302.5140  206.6594   33.1691 C.3     829      M_A    0.0000
   5806 O         303.3004  205.5151   32.8406 O.3     829      M_A    0.0000
   5807 H         300.4734  207.1998   32.7730 H       829      M_A    0.0000
   5808 H         300.9671  205.6737   32.0257 H       829      M_A    0.0000
   5809 H         302.1587  206.5851   34.2065 H       829      M_A    0.0000
   5810 H         303.1166  207.5719   33.0674 H       829      M_A    0.0000
   5811 C         302.7326  204.8139   31.7550 C.3     830      M_A    0.0000
   5812 C         301.2202  204.9796   31.6746 C.3     830      M_A    0.0000
   5813 O         300.6175  203.6863   31.6764 O.3     830      M_A    0.0000
   5814 H         303.1836  205.1904   30.8299 H       830      M_A    0.0000
   5815 H         302.9915  203.7527   31.8435 H       830      M_A    0.0000
   5816 H         300.9846  205.5019   30.7367 H       830      M_A    0.0000
   5817 H         300.8375  205.5741   32.5149 H       830      M_A    0.0000
   5818 C         299.2464  203.7747   32.0001 C.3     831      M_A    0.0000
   5819 C         299.0095  204.1527   33.4570 C.3     831      M_A    0.0000
   5820 O         297.6528  204.5684   33.6071 O.3     831      M_A    0.0000
   5821 H         298.7898  204.5336   31.3547 H       831      M_A    0.0000
   5822 H         298.7663  202.8152   31.7766 H       831      M_A    0.0000
   5823 H         299.6858  204.9821   33.7075 H       831      M_A    0.0000
   5824 H         299.2213  203.3100   34.1286 H       831      M_A    0.0000
   5825 C         296.7846  203.4555   33.5887 C.3     832      M_A    0.0000
   5826 C         295.7249  203.5546   32.4985 C.3     832      M_A    0.0000
   5827 O         294.6414  204.3459   32.9841 O.3     832      M_A    0.0000
   5828 H         297.3857  202.5543   33.4229 H       832      M_A    0.0000
   5829 H         296.3076  203.3613   34.5709 H       832      M_A    0.0000
   5830 H         295.3744  202.5379   32.2714 H       832      M_A    0.0000
   5831 H         296.1343  203.9993   31.5816 H       832      M_A    0.0000
   5832 C         294.7179  205.6615   32.4780 C.3     833      M_A    0.0000
   5833 C         293.5089  206.5081   32.8561 C.3     833      M_A    0.0000
   5834 O         292.5337  206.4016   31.8200 O.3     833      M_A    0.0000
   5835 H         295.6233  206.1311   32.8789 H       833      M_A    0.0000
   5836 H         294.8210  205.6169   31.3878 H       833      M_A    0.0000
   5837 H         293.8411  207.5513   32.9528 H       833      M_A    0.0000
   5838 H         293.0779  206.1852   33.8132 H       833      M_A    0.0000
   5839 C         292.6317  207.4914   30.9282 C.3     834      M_A    0.0000
   5840 C         291.4235  208.4171   30.9962 C.3     834      M_A    0.0000
   5841 O         291.0157  208.5380   32.3582 O.3     834      M_A    0.0000
   5842 H         293.5335  208.0608   31.1801 H       834      M_A    0.0000
   5843 H         292.7549  207.1065   29.9095 H       834      M_A    0.0000
   5844 H         290.6161  207.9670   30.4015 H       834      M_A    0.0000
   5845 H         291.6549  209.4082   30.5834 H       834      M_A    0.0000
   5846 C         290.0028  209.5120   32.4917 C.3     835      M_A    0.0000
   5847 C         288.6931  208.9310   33.0099 C.3     835      M_A    0.0000
   5848 O         287.6815  209.1320   32.0239 O.3     835      M_A    0.0000
   5849 H         290.3549  210.2797   33.1900 H       835      M_A    0.0000
   5850 H         289.8434  209.9938   31.5203 H       835      M_A    0.0000
   5851 H         288.4271  209.4630   33.9341 H       835      M_A    0.0000
   5852 H         288.7916  207.8606   33.2351 H       835      M_A    0.0000
   5853 C         286.4232  209.3293   32.6326 C.3     836      M_A    0.0000
   5854 C         285.2674  208.8554   31.7602 C.3     836      M_A    0.0000
   5855 O         285.1163  209.7619   30.6688 O.3     836      M_A    0.0000
   5856 H         286.4088  208.7752   33.5779 H       836      M_A    0.0000
   5857 H         286.3060  210.3931   32.8686 H       836      M_A    0.0000
   5858 H         284.3562  208.8530   32.3747 H       836      M_A    0.0000
   5859 H         285.4412  207.8386   31.3835 H       836      M_A    0.0000
   5860 C         283.8115  209.6881   30.1353 C.3     837      M_A    0.0000
   5861 C         283.7361  208.8224   28.8839 C.3     837      M_A    0.0000
   5862 O         283.6476  209.6743   27.7428 O.3     837      M_A    0.0000
   5863 H         283.1508  209.2676   30.9018 H       837      M_A    0.0000
   5864 H         283.4607  210.7025   29.9138 H       837      M_A    0.0000
   5865 H         282.8348  208.1976   28.9563 H       837      M_A    0.0000
   5866 H         284.6132  208.1672   28.7971 H       837      M_A    0.0000
   5867 C         284.9008  210.2578   27.4568 C.3     838      M_A    0.0000
   5868 C         285.4185  211.1267   28.5961 C.3     838      M_A    0.0000
   5869 O         285.3891  212.4914   28.1806 O.3     838      M_A    0.0000
   5870 H         285.6187  209.4521   27.2663 H       838      M_A    0.0000
   5871 H         284.8150  210.8508   26.5391 H       838      M_A    0.0000
   5872 H         286.4522  210.8229   28.8131 H       838      M_A    0.0000
   5873 H         284.8149  210.9970   29.5045 H       838      M_A    0.0000
   5874 C         284.6792  213.2814   29.1105 C.3     839      M_A    0.0000
   5875 C         284.2284  214.6144   28.5263 C.3     839      M_A    0.0000
   5876 O         283.4862  215.3213   29.5188 O.3     839      M_A    0.0000
   5877 H         283.7983  212.7176   29.4376 H       839      M_A    0.0000
   5878 H         285.3119  213.4496   29.9894 H       839      M_A    0.0000
   5879 H         283.5887  214.4059   27.6572 H       839      M_A    0.0000
   5880 H         285.0852  215.2172   28.1968 H       839      M_A    0.0000
   5881 C         283.2878  214.5165   30.6615 C.3     840      M_A    0.0000
   5882 C         281.9703  213.7524   30.6209 C.3     840      M_A    0.0000
   5883 O         281.0699  214.3427   31.5573 O.3     840      M_A    0.0000
   5884 H         284.1150  213.8006   30.7247 H       840      M_A    0.0000
   5885 H         283.3282  215.1512   31.5540 H       840      M_A    0.0000
   5886 H         282.1732  212.7094   30.9019 H       840      M_A    0.0000
   5887 H         281.5300  213.7671   29.6149 H       840      M_A    0.0000
   5888 C         279.8965  213.5674   31.6786 C.3     841      M_A    0.0000
   5889 C         279.6025  213.1673   33.1190 C.3     841      M_A    0.0000
   5890 O         279.7010  211.7481   33.2289 O.3     841      M_A    0.0000
   5891 H         279.0560  214.1545   31.2915 H       841      M_A    0.0000
   5892 H         279.9950  212.6739   31.0516 H       841      M_A    0.0000
   5893 H         278.5807  213.4921   33.3605 H       841      M_A    0.0000
   5894 H         280.2998  213.6480   33.8182 H       841      M_A    0.0000
   5895 C         278.7993  211.1151   32.3463 C.3     842      M_A    0.0000
   5896 C         277.3727  211.6292   32.4949 C.3     842      M_A    0.0000
   5897 O         276.4711  210.5428   32.2883 O.3     842      M_A    0.0000
   5898 H         279.1398  211.2955   31.3204 H       842      M_A    0.0000
   5899 H         278.8307  210.0339   32.5220 H       842      M_A    0.0000
   5900 H         277.2088  212.4030   31.7318 H       842      M_A    0.0000
   5901 H         277.2081  212.0715   33.4865 H       842      M_A    0.0000
   5902 C         275.1737  211.0186   32.0000 C.3     843      M_A    0.0000
   5903 C         274.3999  210.0905   31.0720 C.3     843      M_A    0.0000
   5904 O         273.3071  210.8143   30.5081 O.3     843      M_A    0.0000
   5905 H         274.6269  211.1177   32.9445 H       843      M_A    0.0000
   5906 H         275.2525  212.0170   31.5549 H       843      M_A    0.0000
   5907 H         274.0235  209.2483   31.6696 H       843      M_A    0.0000
   5908 H         275.0424  209.6965   30.2732 H       843      M_A    0.0000
   5909 C         273.1795  212.0810   31.1179 C.3     844      M_A    0.0000
   5910 C         271.7305  212.4484   31.4124 C.3     844      M_A    0.0000
   5911 O         271.1064  212.8592   30.1968 O.3     844      M_A    0.0000
   5912 H         273.7435  212.0677   32.0575 H       844      M_A    0.0000
   5913 H         273.6351  212.8358   30.4670 H       844      M_A    0.0000
   5914 H         271.7297  213.2779   32.1334 H       844      M_A    0.0000
   5915 H         271.1837  211.6017   31.8486 H       844      M_A    0.0000
   5916 C         270.0977  213.8133   30.4509 C.3     845      M_A    0.0000
   5917 C         268.7429  213.1757   30.7328 C.3     845      M_A    0.0000
   5918 O         268.4746  213.2706   32.1310 O.3     845      M_A    0.0000
   5919 H         270.4004  214.4095   31.3191 H       845      M_A    0.0000
   5920 H         270.0246  214.4899   29.5918 H       845      M_A    0.0000
   5921 H         268.7946  212.1200   30.4316 H       845      M_A    0.0000
   5922 H         267.9432  213.6664   30.1621 H       845      M_A    0.0000
   5923 C         268.1664  212.0019   32.6676 C.3     846      M_A    0.0000
   5924 C         266.7007  211.6274   32.4865 C.3     846      M_A    0.0000
   5925 O         266.6288  210.3831   31.7920 O.3     846      M_A    0.0000
   5926 H         268.7914  211.2556   32.1643 H       846      M_A    0.0000
   5927 H         268.4292  211.9931   33.7315 H       846      M_A    0.0000
   5928 H         266.2187  212.4168   31.8928 H       846      M_A    0.0000
   5929 H         266.1853  211.5490   33.4532 H       846      M_A    0.0000
   5930 C         265.3232  210.1580   31.3046 C.3     847      M_A    0.0000
   5931 C         265.2757  210.0333   29.7868 C.3     847      M_A    0.0000
   5932 O         264.5688  211.1541   29.2575 O.3     847      M_A    0.0000
   5933 H         264.9451  209.2318   31.7518 H       847      M_A    0.0000
   5934 H         264.6745  210.9767   31.6362 H       847      M_A    0.0000
   5935 H         264.7448  209.1036   29.5383 H       847      M_A    0.0000
   5936 H         266.2854  209.9883   29.3572 H       847      M_A    0.0000
   5937 C         263.7044  211.7033   30.2290 C.3     848      M_A    0.0000
   5938 C         262.2332  211.4918   29.8938 C.3     848      M_A    0.0000
   5939 O         261.8718  212.3819   28.8388 O.3     848      M_A    0.0000
   5940 H         263.9241  211.2280   31.1917 H       848      M_A    0.0000
   5941 H         263.9181  212.7735   30.3298 H       848      M_A    0.0000
   5942 H         261.6435  211.7174   30.7935 H       848      M_A    0.0000
   5943 H         262.0363  210.4537   29.5944 H       848      M_A    0.0000
   5944 C         260.9436  213.3436   29.2929 C.3     849      M_A    0.0000
   5945 C         259.5865  213.2184   28.6118 C.3     849      M_A    0.0000
   5946 O         259.5160  214.1726   27.5533 O.3     849      M_A    0.0000
   5947 H         260.8153  213.2132   30.3733 H       849      M_A    0.0000
   5948 H         261.3586  214.3441   29.1255 H       849      M_A    0.0000
   5949 H         258.8096  213.4300   29.3599 H       849      M_A    0.0000
   5950 H         259.4290  212.2059   28.2167 H       849      M_A    0.0000
   5951 C         258.2262  214.7415   27.4789 C.3     850      M_A    0.0000
   5952 C         258.2551  216.2648   27.4704 C.3     850      M_A    0.0000
   5953 O         257.2248  216.7468   28.3317 O.3     850      M_A    0.0000
   5954 H         257.7476  214.3874   26.5589 H       850      M_A    0.0000
   5955 H         257.6297  214.3804   28.3244 H       850      M_A    0.0000
   5956 H         258.0720  216.6027   26.4407 H       850      M_A    0.0000
   5957 H         259.2303  216.6483   27.7991 H       850      M_A    0.0000
   5958 C         256.1487  215.8346   28.3822 C.3     851      M_A    0.0000
   5959 C         254.8364  216.4466   27.9082 C.3     851      M_A    0.0000
   5960 O         254.3481  217.3239   28.9220 O.3     851      M_A    0.0000
   5961 H         256.3951  214.9779   27.7447 H       851      M_A    0.0000
   5962 H         256.0437  215.4660   29.4090 H       851      M_A    0.0000
   5963 H         254.1203  215.6295   27.7424 H       851      M_A    0.0000
   5964 H         254.9683  216.9962   26.9666 H       851      M_A    0.0000
   5965 C         253.1395  216.8363   29.4645 C.3     852      M_A    0.0000
   5966 C         251.9644  216.9800   28.5055 C.3     852      M_A    0.0000
   5967 O         250.7955  217.2995   29.2587 O.3     852      M_A    0.0000
   5968 H         253.2756  215.7765   29.7077 H       852      M_A    0.0000
   5969 H         252.9303  217.3681   30.3997 H       852      M_A    0.0000
   5970 H         251.8271  216.0194   27.9894 H       852      M_A    0.0000
   5971 H         252.1532  217.7595   27.7551 H       852      M_A    0.0000
   5972 C         249.6406  216.7850   28.6308 C.3     853      M_A    0.0000
   5973 C         248.5940  217.8574   28.3551 C.3     853      M_A    0.0000
   5974 O         247.3216  217.3763   28.7855 O.3     853      M_A    0.0000
   5975 H         249.9416  216.3262   27.6822 H       853      M_A    0.0000
   5976 H         249.2152  215.9962   29.2617 H       853      M_A    0.0000
   5977 H         248.5772  218.0459   27.2725 H       853      M_A    0.0000
   5978 H         248.8363  218.7953   28.8725 H       853      M_A    0.0000
   5979 C         246.2870  217.9287   27.9999 C.3     854      M_A    0.0000
   5980 C         245.3298  218.7926   28.8116 C.3     854      M_A    0.0000
   5981 O         244.0254  218.6885   28.2430 O.3     854      M_A    0.0000
   5982 H         246.7430  218.5412   27.2139 H       854      M_A    0.0000
   5983 H         245.7389  217.1149   27.5118 H       854      M_A    0.0000
   5984 H         245.6808  219.8327   28.7572 H       854      M_A    0.0000
   5985 H         245.3068  218.4830   29.8651 H       854      M_A    0.0000
   5986 C         243.2631  219.8420   28.5274 C.3     855      M_A    0.0000
   5987 C         241.8112  219.5203   28.8588 C.3     855      M_A    0.0000
   5988 O         240.9659  220.2758   27.9925 O.3     855      M_A    0.0000
   5989 H         243.7205  220.3533   29.3821 H       855      M_A    0.0000
   5990 H         243.3123  220.5208   27.6684 H       855      M_A    0.0000
   5991 H         241.6292  219.8070   29.9041 H       855      M_A    0.0000
   5992 H         241.6032  218.4478   28.7461 H       855      M_A    0.0000
   5993 C         239.7909  220.6755   28.6650 C.3     856      M_A    0.0000
   5994 C         238.5533  219.9315   28.1791 C.3     856      M_A    0.0000
   5995 O         237.4445  220.8293   28.1938 O.3     856      M_A    0.0000
   5996 H         239.9264  220.4840   29.7355 H       856      M_A    0.0000
   5997 H         239.6572  221.7554   28.5345 H       856      M_A    0.0000
   5998 H         238.3675  219.0947   28.8670 H       856      M_A    0.0000
   5999 H         238.6992  219.5303   27.1672 H       856      M_A    0.0000
   6000 C         237.5202  221.7341   27.1130 C.3     857      M_A    0.0000
   6001 C         236.2374  222.5345   26.9252 C.3     857      M_A    0.0000
   6002 O         235.3396  221.7766   26.1158 O.3     857      M_A    0.0000
   6003 H         238.3492  222.4256   27.3020 H       857      M_A    0.0000
   6004 H         237.7540  221.1765   26.1989 H       857      M_A    0.0000
   6005 H         236.4948  223.4758   26.4196 H       857      M_A    0.0000
   6006 H         235.7676  222.7694   27.8897 H       857      M_A    0.0000
   6007 C         234.0537  222.3590   26.1165 C.3     858      M_A    0.0000
   6008 C         233.3591  222.2486   27.4680 C.3     858      M_A    0.0000
   6009 O         231.9729  221.9896   27.2502 O.3     858      M_A    0.0000
   6010 H         234.1565  223.4176   25.8523 H       858      M_A    0.0000
   6011 H         233.4466  221.8797   25.3401 H       858      M_A    0.0000
   6012 H         233.4837  223.2057   27.9938 H       858      M_A    0.0000
   6013 H         233.7994  221.4501   28.0802 H       858      M_A    0.0000
   6014 C         231.3352  221.6355   28.4588 C.3     859      M_A    0.0000
   6015 C         229.8566  221.3185   28.2723 C.3     859      M_A    0.0000
   6016 O         229.0874  222.2934   28.9750 O.3     859      M_A    0.0000
   6017 H         231.8414  220.7541   28.8683 H       859      M_A    0.0000
   6018 H         231.4577  222.4536   29.1776 H       859      M_A    0.0000
   6019 H         229.6677  220.3195   28.6898 H       859      M_A    0.0000
   6020 H         229.5791  221.3147   27.2097 H       859      M_A    0.0000
   6021 C         229.0292  223.5021   28.2482 C.3     860      M_A    0.0000
   6022 C         230.4081  224.0256   27.8663 C.3     860      M_A    0.0000
   6023 O         230.2635  224.9569   26.7951 O.3     860      M_A    0.0000
   6024 H         228.4478  223.3262   27.3360 H       860      M_A    0.0000
   6025 H         228.4940  224.2496   28.8449 H       860      M_A    0.0000
   6026 H         231.0181  223.1712   27.5409 H       860      M_A    0.0000
   6027 H         230.9036  224.5077   28.7197 H       860      M_A    0.0000
   6028 C         229.0920  224.6883   26.0547 C.3     861      M_A    0.0000
   6029 C         228.9383  223.2116   25.7127 C.3     861      M_A    0.0000
   6030 O         227.8498  223.0637   24.8022 O.3     861      M_A    0.0000
   6031 H         228.2293  225.0098   26.6491 H       861      M_A    0.0000
   6032 H         229.1064  225.2883   25.1377 H       861      M_A    0.0000
   6033 H         228.7254  222.6672   26.6434 H       861      M_A    0.0000
   6034 H         229.8575  222.8057   25.2693 H       861      M_A    0.0000
   6035 C         226.9869  224.1788   24.8701 C.3     862      M_A    0.0000
   6036 C         225.5665  223.7996   25.2701 C.3     862      M_A    0.0000
   6037 O         224.8359  223.4568   24.0934 O.3     862      M_A    0.0000
   6038 H         227.3913  224.8810   25.6080 H       862      M_A    0.0000
   6039 H         226.9827  224.6841   23.8975 H       862      M_A    0.0000
   6040 H         225.1061  224.6708   25.7569 H       862      M_A    0.0000
   6041 H         225.5606  222.9577   25.9753 H       862      M_A    0.0000
   6042 C         223.5122  223.0884   24.4171 C.3     863      M_A    0.0000
   6043 C         222.5302  223.3708   23.2869 C.3     863      M_A    0.0000
   6044 O         221.2983  223.8168   23.8518 O.3     863      M_A    0.0000
   6045 H         223.4999  222.0160   24.6424 H       863      M_A    0.0000
   6046 H         223.2068  223.6224   25.3241 H       863      M_A    0.0000
   6047 H         222.3717  222.4352   22.7324 H       863      M_A    0.0000
   6048 H         222.9231  224.1281   22.5954 H       863      M_A    0.0000
   6049 C         221.2518  223.5347   25.2342 C.3     864      M_A    0.0000
   6050 C         219.8690  223.7585   25.8337 C.3     864      M_A    0.0000
   6051 O         219.9401  224.8460   26.7546 O.3     864      M_A    0.0000
   6052 H         221.5402  222.4877   25.3805 H       864      M_A    0.0000
   6053 H         221.9914  224.1586   25.7488 H       864      M_A    0.0000
   6054 H         219.5738  222.8400   26.3600 H       864      M_A    0.0000
   6055 H         219.1251  223.9731   25.0548 H       864      M_A    0.0000
   6056 C         218.6467  225.2986   27.0936 C.3     865      M_A    0.0000
   6057 C         218.6582  226.6739   27.7493 C.3     865      M_A    0.0000
   6058 O         218.3022  226.5286   29.1233 O.3     865      M_A    0.0000
   6059 H         218.0480  225.3442   26.1769 H       865      M_A    0.0000
   6060 H         218.1781  224.5665   27.7611 H       865      M_A    0.0000
   6061 H         217.9180  227.3024   27.2345 H       865      M_A    0.0000
   6062 H         219.6445  227.1494   27.6644 H       865      M_A    0.0000
   6063 C         217.4976  225.3843   29.3124 C.3     866      M_A    0.0000
   6064 C         216.2909  225.3539   28.3828 C.3     866      M_A    0.0000
   6065 O         216.5116  224.3645   27.3787 O.3     866      M_A    0.0000
   6066 H         218.1140  224.4973   29.1279 H       866      M_A    0.0000
   6067 H         217.1694  225.3499   30.3575 H       866      M_A    0.0000
   6068 H         216.1947  226.3451   27.9178 H       866      M_A    0.0000
   6069 H         215.3670  225.1317   28.9334 H       866      M_A    0.0000
   6070 C         215.3074  223.7016   27.0576 C.3     867      M_A    0.0000
   6071 C         215.2126  223.3372   25.5812 C.3     867      M_A    0.0000
   6072 O         214.9848  224.5284   24.8296 O.3     867      M_A    0.0000
   6073 H         215.2495  222.7859   27.6568 H       867      M_A    0.0000
   6074 H         214.4637  224.3401   27.3433 H       867      M_A    0.0000
   6075 H         214.3669  222.6466   25.4550 H       867      M_A    0.0000
   6076 H         216.1280  222.8411   25.2319 H       867      M_A    0.0000
   6077 C         214.7477  225.6232   25.6886 C.3     868      M_A    0.0000
   6078 C         215.0175  225.2921   27.1511 C.3     868      M_A    0.0000
   6079 O         216.4275  225.2999   27.3694 O.3     868      M_A    0.0000
   6080 H         215.4011  226.4477   25.3817 H       868      M_A    0.0000
   6081 H         213.7110  225.9554   25.5622 H       868      M_A    0.0000
   6082 H         214.6121  224.2908   27.3536 H       868      M_A    0.0000
   6083 H         214.5291  226.0123   27.8211 H       868      M_A    0.0000
   6084 C         217.1183  224.9696   26.1835 C.3     869      M_A    0.0000
   6085 C         216.9594  223.5037   25.7995 C.3     869      M_A    0.0000
   6086 O         217.1518  222.7022   26.9642 O.3     869      M_A    0.0000
   6087 H         216.7283  225.5961   25.3734 H       869      M_A    0.0000
   6088 H         218.1792  225.2131   26.3112 H       869      M_A    0.0000
   6089 H         217.7251  223.2639   25.0485 H       869      M_A    0.0000
   6090 H         215.9687  223.3083   25.3678 H       869      M_A    0.0000
   6091 C         217.7990  223.4414   27.9778 C.3     870      M_A    0.0000
   6092 C         216.9469  224.5901   28.5029 C.3     870      M_A    0.0000
   6093 O         216.4154  225.3107   27.3920 O.3     870      M_A    0.0000
   6094 H         218.0304  222.7603   28.8045 H       870      M_A    0.0000
   6095 H         218.7484  223.8244   27.5865 H       870      M_A    0.0000
   6096 H         217.5933  225.2471   29.1016 H       870      M_A    0.0000
   6097 H         216.1302  224.2240   29.1394 H       870      M_A    0.0000
   6098 C         216.9504  224.8246   26.1794 C.3     871      M_A    0.0000
   6099 C         217.2375  225.9351   25.1766 C.3     871      M_A    0.0000
   6100 O         215.9969  226.4810   24.7306 O.3     871      M_A    0.0000
   6101 H         217.8831  224.2950   26.4039 H       871      M_A    0.0000
   6102 H         216.2511  224.0990   25.7486 H       871      M_A    0.0000
   6103 H         217.7803  225.4953   24.3281 H       871      M_A    0.0000
   6104 H         217.8580  226.7249   25.6208 H       871      M_A    0.0000
   6105 C         216.2080  227.6731   24.0048 C.3     872      M_A    0.0000
   6106 C         214.9326  228.2039   23.3622 C.3     872      M_A    0.0000
   6107 O         215.0777  228.1490   21.9439 O.3     872      M_A    0.0000
   6108 H         216.6031  228.4286   24.6934 H       872      M_A    0.0000
   6109 H         216.9694  227.4916   23.2377 H       872      M_A    0.0000
   6110 H         214.7970  229.2456   23.6853 H       872      M_A    0.0000
   6111 H         214.0552  227.6212   23.6735 H       872      M_A    0.0000
   6112 C         214.9489  226.8221   21.4797 C.3     873      M_A    0.0000
   6113 C         213.7836  226.6477   20.5138 C.3     873      M_A    0.0000
   6114 O         212.7946  225.8268   21.1333 O.3     873      M_A    0.0000
   6115 H         215.8794  226.5445   20.9719 H       873      M_A    0.0000
   6116 H         214.8280  226.1550   22.3408 H       873      M_A    0.0000
   6117 H         214.1640  226.1569   19.6069 H       873      M_A    0.0000
   6118 H         213.3474  227.6160   20.2340 H       873      M_A    0.0000
   6119 C         212.3255  226.4226   22.3240 C.3     874      M_A    0.0000
   6120 C         211.7835  225.4028   23.3178 C.3     874      M_A    0.0000
   6121 O         210.6608  224.7451   22.7322 O.3     874      M_A    0.0000
   6122 H         213.1572  226.9660   22.7864 H       874      M_A    0.0000
   6123 H         211.5489  227.1539   22.0728 H       874      M_A    0.0000
   6124 H         211.4719  225.9424   24.2231 H       874      M_A    0.0000
   6125 H         212.5499  224.6658   23.5929 H       874      M_A    0.0000
   6126 C         209.4531  225.2981   23.2099 C.3     875      M_A    0.0000
   6127 C         208.8986  226.3806   22.2921 C.3     875      M_A    0.0000
   6128 O         208.1300  227.2937   23.0739 O.3     875      M_A    0.0000
   6129 H         208.7170  224.4910   23.2969 H       875      M_A    0.0000
   6130 H         209.6214  225.7046   24.2137 H       875      M_A    0.0000
   6131 H         208.2569  225.8956   21.5431 H       875      M_A    0.0000
   6132 H         209.7044  226.9159   21.7724 H       875      M_A    0.0000
   6133 C         207.7929  226.7232   24.3203 C.3     876      M_A    0.0000
   6134 C         206.4250  227.1702   24.8208 C.3     876      M_A    0.0000
   6135 O         206.5629  227.6590   26.1542 O.3     876      M_A    0.0000
   6136 H         207.7950  225.6329   24.2103 H       876      M_A    0.0000
   6137 H         208.5661  226.9854   25.0514 H       876      M_A    0.0000
   6138 H         205.7565  226.2979   24.8083 H       876      M_A    0.0000
   6139 H         205.9985  227.9505   24.1763 H       876      M_A    0.0000
   6140 C         205.4079  228.3687   26.5479 C.3     877      M_A    0.0000
   6141 C         205.2493  229.6907   25.8073 C.3     877      M_A    0.0000
   6142 O         203.9328  230.1897   26.0387 O.3     877      M_A    0.0000
   6143 H         204.5336  227.7391   26.3476 H       877      M_A    0.0000
   6144 H         205.4507  228.5446   27.6287 H       877      M_A    0.0000
   6145 H         205.3949  229.4994   24.7349 H       877      M_A    0.0000
   6146 H         205.9942  230.4267   26.1384 H       877      M_A    0.0000
   6147 C         202.9668  229.3344   25.4660 C.3     878      M_A    0.0000
   6148 C         201.6187  230.0171   25.2711 C.3     878      M_A    0.0000
   6149 O         200.5891  229.0346   25.3743 O.3     878      M_A    0.0000
   6150 H         203.3412  228.9971   24.4929 H       878      M_A    0.0000
   6151 H         202.8531  228.4502   26.1035 H       878      M_A    0.0000
   6152 H         201.6076  230.4683   24.2690 H       878      M_A    0.0000
   6153 H         201.4595  230.8084   26.0158 H       878      M_A    0.0000
   6154 C         199.4802  229.3876   24.5753 C.3     879      M_A    0.0000
   6155 C         198.4350  230.1890   25.3414 C.3     879      M_A    0.0000
   6156 O         197.1540  229.9395   24.7647 O.3     879      M_A    0.0000
   6157 H         199.8420  229.9857   23.7313 H       879      M_A    0.0000
   6158 H         199.0312  228.4746   24.1680 H       879      M_A    0.0000
   6159 H         198.6875  231.2546   25.2476 H       879      M_A    0.0000
   6160 H         198.4268  229.9211   26.4064 H       879      M_A    0.0000
   6161 C         196.1561  230.6929   25.4199 C.3     880      M_A    0.0000
   6162 C         194.7464  230.2480   25.0509 C.3     880      M_A    0.0000
   6163 O         193.9121  231.4018   24.9581 O.3     880      M_A    0.0000
   6164 H         196.2957  230.5802   26.5010 H       880      M_A    0.0000
   6165 H         196.2933  231.7523   25.1753 H       880      M_A    0.0000
   6166 H         194.3804  229.5835   25.8461 H       880      M_A    0.0000
   6167 H         194.7361  229.6988   24.1000 H       880      M_A    0.0000
   6168 C         192.5874  231.0917   25.3345 C.3     881      M_A    0.0000
   6169 C         191.5879  231.3162   24.2066 C.3     881      M_A    0.0000
   6170 O         190.3463  231.7341   24.7719 O.3     881      M_A    0.0000
   6171 H         192.5544  230.0391   25.6377 H       881      M_A    0.0000
   6172 H         192.3148  231.6977   26.2060 H       881      M_A    0.0000
   6173 H         191.4560  230.3637   23.6744 H       881      M_A    0.0000
   6174 H         191.9502  232.0703   23.4951 H       881      M_A    0.0000
   6175 C         189.3056  231.6296   23.8239 C.3     882      M_A    0.0000
   6176 C         188.1935  232.6444   24.0575 C.3     882      M_A    0.0000
   6177 O         186.9360  231.9817   23.9342 O.3     882      M_A    0.0000
   6178 H         189.7323  231.7892   22.8272 H       882      M_A    0.0000
   6179 H         188.8998  230.6120   23.8531 H       882      M_A    0.0000
   6180 H         188.2813  233.4277   23.2916 H       882      M_A    0.0000
   6181 H         188.2780  233.1096   25.0488 H       882      M_A    0.0000
   6182 C         185.8882  232.9187   23.8049 C.3     883      M_A    0.0000
   6183 C         184.6675  232.5548   24.6410 C.3     883      M_A    0.0000
   6184 O         183.5286  233.2261   24.1044 O.3     883      M_A    0.0000
   6185 H         186.2622  233.8978   24.1249 H       883      M_A    0.0000
   6186 H         185.6111  232.9977   22.7476 H       883      M_A    0.0000
   6187 H         184.8492  232.8898   25.6719 H       883      M_A    0.0000
   6188 H         184.4962  231.4700   24.6479 H       883      M_A    0.0000
   6189 C         183.2173  232.7320   22.8192 C.3     884      M_A    0.0000
   6190 C         182.0746  233.4924   22.1579 C.3     884      M_A    0.0000
   6191 O         180.8404  232.8877   22.5409 O.3     884      M_A    0.0000
   6192 H         184.1128  232.8160   22.1932 H       884      M_A    0.0000
   6193 H         182.9659  231.6683   22.8993 H       884      M_A    0.0000
   6194 H         182.2047  233.4222   21.0688 H       884      M_A    0.0000
   6195 H         182.0797  234.5522   22.4458 H       884      M_A    0.0000
   6196 C         179.8606  233.8712   22.7969 C.3     885      M_A    0.0000
   6197 C         178.9205  233.4832   23.9313 C.3     885      M_A    0.0000
   6198 O         177.7291  234.2611   23.8246 O.3     885      M_A    0.0000
   6199 H         180.3717  234.8045   23.0588 H       885      M_A    0.0000
   6200 H         179.2897  234.0508   21.8788 H       885      M_A    0.0000
   6201 H         179.4268  233.7011   24.8822 H       885      M_A    0.0000
   6202 H         178.6753  232.4132   23.8996 H       885      M_A    0.0000
   6203 C         177.0534  233.9765   22.6183 C.3     886      M_A    0.0000
   6204 C         176.0621  235.0660   22.2287 C.3     886      M_A    0.0000
   6205 O         174.7551  234.6617   22.6340 O.3     886      M_A    0.0000
   6206 H         177.8003  233.8712   21.8234 H       886      M_A    0.0000
   6207 H         176.5368  233.0152   22.7191 H       886      M_A    0.0000
   6208 H         176.0968  235.1826   21.1363 H       886      M_A    0.0000
   6209 H         176.3200  236.0267   22.6941 H       886      M_A    0.0000
   6210 C         173.7853  235.5835   22.1841 C.3     887      M_A    0.0000
   6211 C         172.8703  236.0668   23.3025 C.3     887      M_A    0.0000
   6212 O         171.5555  236.2386   22.7758 O.3     887      M_A    0.0000
   6213 H         174.3059  236.4446   21.7501 H       887      M_A    0.0000
   6214 H         173.1939  235.1165   21.3884 H       887      M_A    0.0000
   6215 H         173.2572  237.0289   23.6666 H       887      M_A    0.0000
   6216 H         172.8506  235.3555   24.1389 H       887      M_A    0.0000
   6217 C         170.8698  237.2601   23.4680 C.3     888      M_A    0.0000
   6218 C         169.4031  236.9249   23.7086 C.3     888      M_A    0.0000
   6219 O         168.5987  237.7923   22.9108 O.3     888      M_A    0.0000
   6220 H         171.3652  237.4123   24.4336 H       888      M_A    0.0000
   6221 H         170.9551  238.1931   22.8995 H       888      M_A    0.0000
   6222 H         169.1873  237.0877   24.7739 H       888      M_A    0.0000
   6223 H         169.1862  235.8772   23.4610 H       888      M_A    0.0000
   6224 C         167.2743  237.3107   22.8294 C.3     889      M_A    0.0000
   6225 C         166.3163  238.3255   22.2180 C.3     889      M_A    0.0000
   6226 O         164.9841  237.9833   22.5974 O.3     889      M_A    0.0000
   6227 H         167.2762  236.4042   22.2137 H       889      M_A    0.0000
   6228 H         166.9363  237.0303   23.8335 H       889      M_A    0.0000
   6229 H         166.4196  238.2753   21.1250 H       889      M_A    0.0000
   6230 H         166.5509  239.3465   22.5477 H       889      M_A    0.0000
   6231 C         164.0693  238.3363   21.5818 C.3     890      M_A    0.0000
   6232 C         162.8220  239.0213   22.1262 C.3     890      M_A    0.0000
   6233 O         161.6715  238.3422   21.6252 O.3     890      M_A    0.0000
   6234 H         164.5751  239.0146   20.8853 H       890      M_A    0.0000
   6235 H         163.7915  237.4341   21.0252 H       890      M_A    0.0000
   6236 H         162.8253  240.0628   21.7752 H       890      M_A    0.0000
   6237 H         162.8115  239.0195   23.2244 H       890      M_A    0.0000
   6238 C         160.5993  239.2425   21.4448 C.3     891      M_A    0.0000
   6239 C         159.5568  239.1445   22.5516 C.3     891      M_A    0.0000
   6240 O         158.2840  239.5009   22.0142 O.3     891      M_A    0.0000
   6241 H         161.0056  240.2601   21.4248 H       891      M_A    0.0000
   6242 H         160.1347  239.0505   20.4710 H       891      M_A    0.0000
   6243 H         159.8384  239.8484   23.3474 H       891      M_A    0.0000
   6244 H         159.5164  238.1319   22.9747 H       891      M_A    0.0000
   6245 C         158.2594  240.8648   21.6511 C.3     892      M_A    0.0000
   6246 C         156.9721  241.5622   22.0729 C.3     892      M_A    0.0000
   6247 O         156.0059  241.4063   21.0346 O.3     892      M_A    0.0000
   6248 H         159.1098  241.3627   22.1304 H       892      M_A    0.0000
   6249 H         158.3943  240.9459   20.5666 H       892      M_A    0.0000
   6250 H         157.1954  242.6282   22.2205 H       892      M_A    0.0000
   6251 H         156.5833  241.1499   23.0136 H       892      M_A    0.0000
   6252 C         154.9130  240.6327   21.4815 C.3     893      M_A    0.0000
   6253 C         153.5817  241.1164   20.9200 C.3     893      M_A    0.0000
   6254 O         152.5568  240.8451   21.8749 O.3     893      M_A    0.0000
   6255 H         155.0771  239.5950   21.1699 H       893      M_A    0.0000
   6256 H         154.8893  240.6514   22.5770 H       893      M_A    0.0000
   6257 H         153.3840  240.5644   19.9904 H       893      M_A    0.0000
   6258 H         153.6097  242.1905   20.6930 H       893      M_A    0.0000
   6259 C         151.2857  240.8602   21.2610 C.3     894      M_A    0.0000
   6260 C         150.4261  242.0322   21.7178 C.3     894      M_A    0.0000
   6261 O         149.0583  241.7294   21.4471 O.3     894      M_A    0.0000
   6262 H         151.4294  240.9229   20.1764 H       894      M_A    0.0000
   6263 H         150.7769  239.9134   21.4750 H       894      M_A    0.0000
   6264 H         150.7330  242.9212   21.1490 H       894      M_A    0.0000
   6265 H         150.5618  242.2346   22.7886 H       894      M_A    0.0000
   6266 C         148.3622  242.8869   21.0369 C.3     895      M_A    0.0000
   6267 C         146.9523  242.9590   21.6100 C.3     895      M_A    0.0000
   6268 O         146.0195  242.9690   20.5303 O.3     895      M_A    0.0000
   6269 H         148.9290  243.7639   21.3694 H       895      M_A    0.0000
   6270 H         148.3258  242.9098   19.9418 H       895      M_A    0.0000
   6271 H         146.8672  243.8900   22.1878 H       895      M_A    0.0000
   6272 H         146.7473  242.1105   22.2764 H       895      M_A    0.0000
   6273 C         144.8885  243.7489   20.8546 C.3     896      M_A    0.0000
   6274 C         143.6784  242.9023   21.2293 C.3     896      M_A    0.0000
   6275 O         142.4960  243.5874   20.8191 O.3     896      M_A    0.0000
   6276 H         145.1488  244.3954   21.7003 H       896      M_A    0.0000
   6277 H         144.6473  244.3956   20.0033 H       896      M_A    0.0000
   6278 H         143.6779  242.7740   22.3209 H       896      M_A    0.0000
   6279 H         143.7219  241.9114   20.7579 H       896      M_A    0.0000
   6280 C         141.4073  243.2462   21.6502 C.3     897      M_A    0.0000
   6281 C         140.0865  243.1841   20.8932 C.3     897      M_A    0.0000
   6282 O         139.2090  244.1773   21.4218 O.3     897      M_A    0.0000
   6283 H         141.6105  242.2661   22.0965 H       897      M_A    0.0000
   6284 H         141.3407  243.9756   22.4654 H       897      M_A    0.0000
   6285 H         139.6552  242.1844   21.0431 H       897      M_A    0.0000
   6286 H         140.2341  243.3466   19.8171 H       897      M_A    0.0000
   6287 C         137.8612  243.8252   21.1937 C.3     898      M_A    0.0000
   6288 C         137.1584  244.7790   20.2356 C.3     898      M_A    0.0000
   6289 O         135.7668  244.8003   20.5500 O.3     898      M_A    0.0000
   6290 H         137.8374  242.8135   20.7733 H       898      M_A    0.0000
   6291 H         137.3338  243.7989   22.1541 H       898      M_A    0.0000
   6292 H         137.3063  244.4041   19.2131 H       898      M_A    0.0000
   6293 H         137.5750  245.7929   20.3031 H       898      M_A    0.0000
   6294 C         135.0272  245.3900   19.5022 C.3     899      M_A    0.0000
   6295 C         133.7690  246.0942   19.9947 C.3     899      M_A    0.0000
   6296 O         132.6332  245.4778   19.3899 O.3     899      M_A    0.0000
   6297 H         135.6704  246.1188   18.9962 H       899      M_A    0.0000
   6298 H         134.7647  244.6151   18.7731 H       899      M_A    0.0000
   6299 H         133.8290  247.1491   19.6919 H       899      M_A    0.0000
   6300 H         133.6855  246.0457   21.0887 H       899      M_A    0.0000
   6301 C         131.4401  245.9217   20.0000 C.3     900      M_A    0.0000
   6302 C         130.1992  245.5725   19.1878 C.3     900      M_A    0.0000
   6303 O         129.1119  246.3748   19.6458 O.3     900      M_A    0.0000
   6304 H         131.3650  245.4530   20.9878 H       900      M_A    0.0000
   6305 H         131.5001  247.0057   20.1497 H       900      M_A    0.0000
   6306 H         129.9749  244.5088   19.3498 H       900      M_A    0.0000
   6307 H         130.3636  245.7386   18.1147 H       900      M_A    0.0000
   6308 C         127.8814  245.7163   19.4336 C.3     901      M_A    0.0000
   6309 C         126.7667  246.6709   19.0244 C.3     901      M_A    0.0000
   6310 O         125.6531  246.4738   19.8945 O.3     901      M_A    0.0000
   6311 H         128.0231  244.9712   18.6426 H       901      M_A    0.0000
   6312 H         127.6028  245.1813   20.3486 H       901      M_A    0.0000
   6313 H         126.4804  246.4358   17.9896 H       901      M_A    0.0000
   6314 H         127.0988  247.7167   19.0693 H       901      M_A    0.0000
   6315 C         124.4379  246.6339   19.1943 C.3     902      M_A    0.0000
   6316 C         123.8055  248.0017   19.4196 C.3     902      M_A    0.0000
   6317 O         122.3881  247.8726   19.3187 O.3     902      M_A    0.0000
   6318 H         124.6385  246.5041   18.1248 H       902      M_A    0.0000
   6319 H         123.7445  245.8427   19.5013 H       902      M_A    0.0000
   6320 H         124.1768  248.6808   18.6392 H       902      M_A    0.0000
   6321 H         124.0771  248.4112   20.4017 H       902      M_A    0.0000
   6322 C         121.8088  249.0744   18.8575 C.3     903      M_A    0.0000
   6323 C         120.4557  249.3585   19.4977 C.3     903      M_A    0.0000
   6324 O         119.4473  249.2772   18.4915 O.3     903      M_A    0.0000
   6325 H         122.4945  249.8970   19.0898 H       903      M_A    0.0000
   6326 H         121.7070  249.0238   17.7674 H       903      M_A    0.0000
   6327 H         120.4849  250.3734   19.9184 H       903      M_A    0.0000
   6328 H         120.2385  248.6478   20.3063 H       903      M_A    0.0000
   6329 C         118.2369  248.7959   19.0354 C.3     904      M_A    0.0000
   6330 C         117.0096  249.3905   18.3560 C.3     904      M_A    0.0000
   6331 O         115.9651  249.5095   19.3207 O.3     904      M_A    0.0000
   6332 H         118.2178  247.7064   18.9191 H       904      M_A    0.0000
   6333 H         118.2176  249.0163   20.1088 H       904      M_A    0.0000
   6334 H         116.7015  248.7074   17.5519 H       904      M_A    0.0000
   6335 H         117.2312  250.3730   17.9183 H       904      M_A    0.0000
   6336 C         114.8967  250.2765   18.8080 C.3     905      M_A    0.0000
   6337 C         113.5745  249.9834   19.5060 C.3     905      M_A    0.0000
   6338 O         112.5095  250.4766   18.6946 O.3     905      M_A    0.0000
   6339 H         115.1425  251.3366   18.9373 H       905      M_A    0.0000
   6340 H         114.8061  250.0847   17.7328 H       905      M_A    0.0000
   6341 H         113.5791  250.5021   20.4750 H       905      M_A    0.0000
   6342 H         113.4453  248.9072   19.6829 H       905      M_A    0.0000
   6343 C         111.4268  250.9004   19.4951 C.3     906      M_A    0.0000
   6344 C         110.0749  250.6270   18.8479 C.3     906      M_A    0.0000
   6345 O         109.2785  251.8077   18.9356 O.3     906      M_A    0.0000
   6346 H         111.4794  250.3692   20.4523 H       906      M_A    0.0000
   6347 H         111.5362  251.9710   19.7022 H       906      M_A    0.0000
   6348 H         109.5930  249.8077   19.3998 H       906      M_A    0.0000
   6349 H         110.1874  250.3262   17.7977 H       906      M_A    0.0000
   6350 C         107.9117  251.4796   19.0652 C.3     907      M_A    0.0000
   6351 C         107.0967  251.8595   17.8352 C.3     907      M_A    0.0000
   6352 O         105.7546  252.1257   18.2399 O.3     907      M_A    0.0000
   6353 H         107.8322  250.3988   19.2275 H       907      M_A    0.0000
   6354 H         107.5093  251.9799   19.9534 H       907      M_A    0.0000
   6355 H         107.1167  251.0099   17.1383 H       907      M_A    0.0000
   6356 H         107.5192  252.7390   17.3312 H       907      M_A    0.0000
   6357 C         105.6662  253.3796   18.8823 C.3     908      M_A    0.0000
   6358 C         104.2530  253.7009   19.3526 C.3     908      M_A    0.0000
   6359 O         103.5518  254.3433   18.2890 O.3     908      M_A    0.0000
   6360 H         106.3380  253.3696   19.7481 H       908      M_A    0.0000
   6361 H         106.0206  254.1563   18.1951 H       908      M_A    0.0000
   6362 H         104.3273  254.3775   20.2155 H       908      M_A    0.0000
   6363 H         103.7181  252.7929   19.6617 H       908      M_A    0.0000
   6364 C         103.1806  253.4081   17.2989 C.3     909      M_A    0.0000
   6365 C         101.7228  253.5451   16.8777 C.3     909      M_A    0.0000
   6366 O         100.9636  252.5198   17.5167 O.3     909      M_A    0.0000
   6367 H         103.8220  253.5621   16.4238 H       909      M_A    0.0000
   6368 H         103.3705  252.3970   17.6767 H       909      M_A    0.0000
   6369 H         101.6713  253.4251   15.7865 H       909      M_A    0.0000
   6370 H         101.3207  254.5320   17.1432 H       909      M_A    0.0000
   6371 C         101.4012  252.3287   18.8451 C.3     910      M_A    0.0000
   6372 C         100.2792  252.4916   19.8629 C.3     910      M_A    0.0000
   6373 O         100.1562  253.8747   20.1910 O.3     910      M_A    0.0000
   6374 H         101.8155  251.3175   18.9277 H       910      M_A    0.0000
   6375 H         102.2093  253.0378   19.0581 H       910      M_A    0.0000
   6376 H         100.5472  251.9157   20.7598 H       910      M_A    0.0000
   6377 H          99.3259  252.1115   19.4718 H       910      M_A    0.0000
   6378 C          99.7293  254.6180   19.0694 C.3     911      M_A    0.0000
   6379 C          98.3984  255.3221   19.3027 C.3     911      M_A    0.0000
   6380 O          97.4901  254.9370   18.2719 O.3     911      M_A    0.0000
   6381 H         100.4959  255.3675   18.8425 H       911      M_A    0.0000
   6382 H          99.6545  253.9467   18.2063 H       911      M_A    0.0000
   6383 H          98.5752  256.4061   19.2611 H       911      M_A    0.0000
   6384 H          97.9797  255.0707   20.2864 H       911      M_A    0.0000
   6385 C          96.1830  254.7950   18.7855 C.3     912      M_A    0.0000
   6386 C          95.1834  254.3372   17.7307 C.3     912      M_A    0.0000
   6387 O          94.0230  255.1637   17.8107 O.3     912      M_A    0.0000
   6388 H          96.2110  254.0579   19.5959 H       912      M_A    0.0000
   6389 H          95.8651  255.7513   19.2164 H       912      M_A    0.0000
   6390 H          94.9158  253.2932   17.9460 H       912      M_A    0.0000
   6391 H          95.6140  254.3899   16.7218 H       912      M_A    0.0000
   6392 C          92.8582  254.4177   17.5290 C.3     913      M_A    0.0000
   6393 C          91.8507  255.1948   16.6910 C.3     913      M_A    0.0000
   6394 O          90.6043  255.2245   17.3851 O.3     913      M_A    0.0000
   6395 H          93.1534  253.5128   16.9858 H       913      M_A    0.0000
   6396 H          92.4005  254.1040   18.4741 H       913      M_A    0.0000
   6397 H          91.7329  254.6735   15.7306 H       913      M_A    0.0000
   6398 H          92.1972  256.2186   16.4962 H       913      M_A    0.0000
   6399 C          89.5253  255.1842   16.4758 C.3     914      M_A    0.0000
   6400 C          88.6358  256.4180   16.5641 C.3     914      M_A    0.0000
   6401 O          87.2715  256.0002   16.5539 O.3     914      M_A    0.0000
   6402 H          89.9339  255.1094   15.4617 H       914      M_A    0.0000
   6403 H          88.9357  254.2799   16.6645 H       914      M_A    0.0000
   6404 H          88.8414  257.0490   15.6880 H       914      M_A    0.0000
   6405 H          88.8449  256.9979   17.4730 H       914      M_A    0.0000
   6406 C          86.4464  257.0026   15.9999 C.3     915      M_A    0.0000
   6407 C          85.2134  257.2850   16.8493 C.3     915      M_A    0.0000
   6408 O          84.0854  257.4232   15.9866 O.3     915      M_A    0.0000
   6409 H          87.0366  257.9214   15.9091 H       915      M_A    0.0000
   6410 H          86.1472  256.6982   14.9904 H       915      M_A    0.0000
   6411 H          85.3846  258.2229   17.3961 H       915      M_A    0.0000
   6412 H          85.0352  256.4808   17.5757 H       915      M_A    0.0000
   6413 C          82.8889  257.1386   16.6795 C.3     916      M_A    0.0000
   6414 C          81.6472  257.5769   15.9131 C.3     916      M_A    0.0000
   6415 O          80.6881  258.0773   16.8435 O.3     916      M_A    0.0000
   6416 H          82.8407  256.0573   16.8509 H       916      M_A    0.0000
   6417 H          82.9205  257.6296   17.6588 H       916      M_A    0.0000
   6418 H          81.2414  256.6985   15.3919 H       916      M_A    0.0000
   6419 H          81.8876  258.3482   15.1692 H       916      M_A    0.0000
   6420 C          79.3749  257.8199   16.3941 C.3     917      M_A    0.0000
   6421 C          78.6753  259.0702   15.8757 C.3     917      M_A    0.0000
   6422 O          77.2663  258.9010   16.0244 O.3     917      M_A    0.0000
   6423 H          79.4271  257.0789   15.5884 H       917      M_A    0.0000
   6424 H          78.7988  257.3784   17.2153 H       917      M_A    0.0000
   6425 H          78.9290  259.1859   14.8126 H       917      M_A    0.0000
   6426 H          79.0057  259.9670   16.4167 H       917      M_A    0.0000
   6427 C          76.8848  259.0540   17.3748 C.3     918      M_A    0.0000
   6428 C          75.3835  258.8977   17.5829 C.3     918      M_A    0.0000
   6429 O          74.7602  260.1664   17.3888 O.3     918      M_A    0.0000
   6430 H          77.4091  258.2958   17.9674 H       918      M_A    0.0000
   6431 H          77.2139  260.0381   17.7274 H       918      M_A    0.0000
   6432 H          75.2171  258.5516   18.6127 H       918      M_A    0.0000
   6433 H          74.9582  258.1596   16.8898 H       918      M_A    0.0000
   6434 C          73.3588  260.0252   17.2952 C.3     919      M_A    0.0000
   6435 C          72.9231  259.3197   16.0170 C.3     919      M_A    0.0000
   6436 O          71.7358  259.9445   15.5314 O.3     919      M_A    0.0000
   6437 H          73.0140  259.4458   18.1591 H       919      M_A    0.0000
   6438 H          72.8973  261.0175   17.3543 H       919      M_A    0.0000
   6439 H          72.7203  258.2675   16.2614 H       919      M_A    0.0000
   6440 H          73.7090  259.3585   15.2508 H       919      M_A    0.0000
   6441 C          72.0346  261.1874   14.9327 C.3     920      M_A    0.0000
   6442 C          70.9673  262.2411   15.2015 C.3     920      M_A    0.0000
   6443 O          69.9661  262.1468   14.1893 O.3     920      M_A    0.0000
   6444 H          72.9929  261.5388   15.3316 H       920      M_A    0.0000
   6445 H          72.1569  261.0413   13.8535 H       920      M_A    0.0000
   6446 H          71.4474  263.2291   15.1632 H       920      M_A    0.0000
   6447 H          70.5139  262.1077   16.1928 H       920      M_A    0.0000
   6448 C          68.6754  262.1617   14.7606 C.3     921      M_A    0.0000
   6449 C          68.0193  260.7866   14.7666 C.3     921      M_A    0.0000
   6450 O          66.6163  260.9500   14.9689 O.3     921      M_A    0.0000
   6451 H          68.7610  262.5220   15.7920 H       921      M_A    0.0000
   6452 H          68.0516  262.8748   14.2096 H       921      M_A    0.0000
   6453 H          68.4525  260.2067   15.5936 H       921      M_A    0.0000
   6454 H          68.2039  260.2510   13.8258 H       921      M_A    0.0000
   6455 C          66.1707  262.1699   14.4158 C.3     922      M_A    0.0000
   6456 C          64.9436  262.7249   15.1282 C.3     922      M_A    0.0000
   6457 O          63.8111  262.5741   14.2734 O.3     922      M_A    0.0000
   6458 H          66.9866  262.8979   14.4886 H       922      M_A    0.0000
   6459 H          65.9533  262.0190   13.3523 H       922      M_A    0.0000
   6460 H          65.1210  263.7903   15.3312 H       922      M_A    0.0000
   6461 H          64.7668  262.2090   16.0815 H       922      M_A    0.0000
   6462 C          62.6147  262.5891   15.0223 C.3     923      M_A    0.0000
   6463 C          61.3714  262.5021   14.1459 C.3     923      M_A    0.0000
   6464 O          60.2912  263.1472   14.8188 O.3     923      M_A    0.0000
   6465 H          62.6290  261.7352   15.7090 H       923      M_A    0.0000
   6466 H          62.5862  263.5023   15.6275 H       923      M_A    0.0000
   6467 H          61.1368  261.4393   13.9929 H       923      M_A    0.0000
   6468 H          61.5384  262.9707   13.1668 H       923      M_A    0.0000
   6469 C          59.0730  262.4829   14.5591 C.3     924      M_A    0.0000
   6470 C          58.0012  263.4147   14.0075 C.3     924      M_A    0.0000
   6471 O          56.8061  263.2375   14.7667 O.3     924      M_A    0.0000
   6472 H          59.2649  261.6871   13.8305 H       924      M_A    0.0000
   6473 H          58.7224  262.0103   15.4836 H       924      M_A    0.0000
   6474 H          57.8222  263.1435   12.9575 H       924      M_A    0.0000
   6475 H          58.3223  264.4640   14.0507 H       924      M_A    0.0000
   6476 C          55.6665  263.4246   13.9549 C.3     925      M_A    0.0000
   6477 C          54.8799  264.6758   14.3252 C.3     925      M_A    0.0000
   6478 O          53.4975  264.4424   14.0599 O.3     925      M_A    0.0000
   6479 H          55.9968  263.5047   12.9131 H       925      M_A    0.0000
   6480 H          55.0255  262.5391   14.0336 H       925      M_A    0.0000
   6481 H          55.2465  265.5045   13.7032 H       925      M_A    0.0000
   6482 H          55.0210  264.9390   15.3820 H       925      M_A    0.0000
   6483 C          52.8279  265.6566   13.7955 C.3     926      M_A    0.0000
   6484 C          51.4282  265.6989   14.3959 C.3     926      M_A    0.0000
   6485 O          50.4834  265.8787   13.3419 O.3     926      M_A    0.0000
   6486 H          53.4227  266.4751   14.2162 H       926      M_A    0.0000
   6487 H          52.7775  265.8053   12.7108 H       926      M_A    0.0000
   6488 H          51.3816  266.5494   15.0905 H       926      M_A    0.0000
   6489 H          51.2026  264.7781   14.9504 H       926      M_A    0.0000
   6490 C          49.2752  266.4123   13.8399 C.3     927      M_A    0.0000
   6491 C          48.0949  265.4663   13.6566 C.3     927      M_A    0.0000
   6492 O          46.8935  266.2351   13.6218 O.3     927      M_A    0.0000
   6493 H          49.4059  266.6186   14.9082 H       927      M_A    0.0000
   6494 H          49.0752  267.3662   13.3388 H       927      M_A    0.0000
   6495 H          48.0749  264.7775   14.5127 H       927      M_A    0.0000
   6496 H          48.1925  264.8789   12.7338 H       927      M_A    0.0000
   6497 C          46.7724  266.9171   12.3919 C.3     928      M_A    0.0000
   6498 C          45.5573  267.8352   12.3458 C.3     928      M_A    0.0000
   6499 O          44.4427  267.0945   11.8509 O.3     928      M_A    0.0000
   6500 H          47.6784  267.5147   12.2403 H       928      M_A    0.0000
   6501 H          46.7198  266.1811   11.5816 H       928      M_A    0.0000
   6502 H          45.7858  268.6681   11.6661 H       928      M_A    0.0000
   6503 H          45.3265  268.2437   13.3388 H       928      M_A    0.0000
   6504 C          43.3955  267.9618   11.4716 C.3     929      M_A    0.0000
   6505 C          42.4962  268.3441   12.6406 C.3     929      M_A    0.0000
   6506 O          41.1671  267.9099   12.3565 O.3     929      M_A    0.0000
   6507 H          43.8388  268.8705   11.0489 H       929      M_A    0.0000
   6508 H          42.8051  267.4817   10.6829 H       929      M_A    0.0000
   6509 H          42.5194  269.4380   12.7440 H       929      M_A    0.0000
   6510 H          42.8467  267.8938   13.5790 H       929      M_A    0.0000
   6511 C          40.3556  267.9998   13.5080 C.3     930      M_A    0.0000
   6512 C          38.8984  267.6533   13.2287 C.3     930      M_A    0.0000
   6513 O          38.0934  268.7962   13.5144 O.3     930      M_A    0.0000
   6514 H          40.7502  267.3079   14.2606 H       930      M_A    0.0000
   6515 H          40.4303  269.0140   13.9166 H       930      M_A    0.0000
   6516 H          38.6146  266.8204   13.8874 H       930      M_A    0.0000
   6517 H          38.7538  267.3425   12.1853 H       930      M_A    0.0000
   6518 C          36.7274  268.4441   13.5678 C.3     931      M_A    0.0000
   6519 C          35.9384  268.9674   12.3741 C.3     931      M_A    0.0000
   6520 O          34.5792  269.1494   12.7683 O.3     931      M_A    0.0000
   6521 H          36.6557  267.3509   13.5929 H       931      M_A    0.0000
   6522 H          36.2984  268.8272   14.5007 H       931      M_A    0.0000
   6523 H          35.9991  268.2188   11.5717 H       931      M_A    0.0000
   6524 H          36.3530  269.9148   12.0046 H       931      M_A    0.0000
   6525 C          33.7478  269.3038   11.6380 C.3     932      M_A    0.0000
   6526 C          32.5408  270.1920   11.9129 C.3     932      M_A    0.0000
   6527 O          31.3571  269.4033   11.8001 O.3     932      M_A    0.0000
   6528 H          34.3432  269.7481   10.8324 H       932      M_A    0.0000
   6529 H          33.4188  268.3140   11.3016 H       932      M_A    0.0000
   6530 H          32.5303  270.9939   11.1614 H       932      M_A    0.0000
   6531 H          32.5968  270.6455   12.9116 H       932      M_A    0.0000
   6532 C          30.2365  270.1124   12.2836 C.3     933      M_A    0.0000
   6533 C          28.9150  269.4875   11.8539 C.3     933      M_A    0.0000
   6534 O          27.8763  270.4505   12.0253 O.3     933      M_A    0.0000
   6535 H          30.2862  270.1273   13.3783 H       933      M_A    0.0000
   6536 H          30.2946  271.1494   11.9338 H       933      M_A    0.0000
   6537 H          28.7270  268.6148   12.4950 H       933      M_A    0.0000
   6538 H          28.9511  269.1551   10.8078 H       933      M_A    0.0000
   6539 C          26.6105  269.8256   12.0222 C.3     934      M_A    0.0000
   6540 C          25.5135  270.7224   11.4621 C.3     934      M_A    0.0000
   6541 O          24.4223  270.7391   12.3813 O.3     934      M_A    0.0000
   6542 H          26.6775  268.9181   11.4116 H       934      M_A    0.0000
   6543 H          26.3627  269.5208   13.0454 H       934      M_A    0.0000
   6544 H          25.1876  270.3012   10.5007 H       934      M_A    0.0000
   6545 H          25.8791  271.7442   11.2935 H       934      M_A    0.0000
   6546 C          23.1913  270.8073   11.6939 C.3     935      M_A    0.0000
   6547 C          22.5754  272.2004   11.7278 C.3     935      M_A    0.0000
   6548 O          21.1551  272.0742   11.6763 O.3     935      M_A    0.0000
   6549 H          23.3642  270.5176   10.6512 H       935      M_A    0.0000
   6550 H          22.4996  270.0784   12.1314 H       935      M_A    0.0000
   6551 H          22.9350  272.7528   10.8483 H       935      M_A    0.0000
   6552 H          22.8719  272.7471   12.6330 H       935      M_A    0.0000
   6553 C          20.5328  273.2992   12.0000 C.3     936      M_A    0.0000
   6554 C          19.0529  273.1390   12.3251 C.3     936      M_A    0.0000
   6555 O          18.2881  273.7692   11.2986 O.3     936      M_A    0.0000
   6556 H          21.0461  273.7256   12.8693 H       936      M_A    0.0000
   6557 H          20.6618  273.9949   11.1631 H       936      M_A    0.0000
   6558 H          18.8616  273.6292   13.2900 H       936      M_A    0.0000
   6559 H          18.7734  272.0800   12.4062 H       936      M_A    0.0000
   6560 C          16.9363  273.3682   11.3655 C.3     937      M_A    0.0000
   6561 C          16.0060  274.3087   10.6096 C.3     937      M_A    0.0000
   6562 O          14.6653  274.0630   11.0317 O.3     937      M_A    0.0000
   6563 H          16.8551  272.3631   10.9363 H       937      M_A    0.0000
   6564 H          16.6361  273.3060   12.4177 H       937      M_A    0.0000
   6565 H          16.1062  274.0960    9.5360 H       937      M_A    0.0000
   6566 H          16.2695  275.3600   10.7868 H       937      M_A    0.0000
   6567 C          13.7640  274.2400    9.9598 C.3     938      M_A    0.0000
   6568 C          12.4740  274.9306   10.3844 C.3     938      M_A    0.0000
   6569 O          11.3780  274.0568   10.1178 O.3     938      M_A    0.0000
   6570 H          14.2585  274.8460    9.1923 H       938      M_A    0.0000
   6571 H          13.5406  273.2619    9.5187 H       938      M_A    0.0000
   6572 H          12.3712  275.8521    9.7942 H       938      M_A    0.0000
   6573 H          12.4937  275.1951   11.4502 H       938      M_A    0.0000
   6574 C          10.2435  274.7895    9.7071 C.3     939      M_A    0.0000
   6575 C           9.3291  275.1575   10.8689 C.3     939      M_A    0.0000
   6576 O           7.9858  275.2199   10.3918 O.3     939      M_A    0.0000
   6577 H          10.5871  275.7076    9.2172 H       939      M_A    0.0000
   6578 H           9.6917  274.2025    8.9642 H       939      M_A    0.0000
   6579 H           9.6389  276.1419   11.2470 H       939      M_A    0.0000
   6580 H           9.4049  274.4265   11.6850 H       939      M_A    0.0000
   6581 C           7.9117  275.9828    9.2064 C.3     940      M_A    0.0000
   6582 C           6.7333  276.9486    9.2015 C.3     940      M_A    0.0000
   6583 O           5.5825  276.2637    8.7093 O.3     940      M_A    0.0000
   6584 H           8.8422  276.5529    9.1068 H       940      M_A    0.0000
   6585 H           7.8451  275.3022    8.3500 H       940      M_A    0.0000
   6586 H           6.9836  277.7872    8.5366 H       940      M_A    0.0000
   6587 H           6.5350  277.3430   10.2071 H       940      M_A    0.0000
   6588 C           4.4555  276.5391    9.5135 C.3     941      M_A    0.0000
   6589 C           3.3391  275.5186    9.3304 C.3     941      M_A    0.0000
   6590 O           2.1177  276.0873    9.8002 O.3     941      M_A    0.0000
   6591 H           4.7737  276.5373   10.5621 H       941      M_A    0.0000
   6592 H           4.0892  277.5450    9.2787 H       941      M_A    0.0000
   6593 H           3.5911  274.6285    9.9239 H       941      M_A    0.0000
   6594 H           3.2360  275.2227    8.2778 H       941      M_A    0.0000
   6595 C           1.4658  276.7939    8.7666 C.3     942      M_A    0.0000
   6596 C           0.3346  277.6760    9.2801 C.3     942      M_A    0.0000
   6597 O          -0.9102  277.0569    8.9591 O.3     942      M_A    0.0000
   6598 H           2.2073  277.4217    8.2596 H       942      M_A    0.0000
   6599 H           1.0810  276.0757    8.0336 H       942      M_A    0.0000
   6600 H           0.4090  278.6510    8.7784 H       942      M_A    0.0000
   6601 H           0.4090  277.8311   10.3648 H       942      M_A    0.0000
   6602 C          -1.9898  277.8997    9.3003 C.3     943      M_A    0.0000
   6603 C          -3.1661  277.1364    9.8963 C.3     943      M_A    0.0000
   6604 O          -4.3732  277.8152    9.5529 O.3     943      M_A    0.0000
   6605 H          -1.6334  278.6351   10.0305 H       943      M_A    0.0000
   6606 H          -2.3095  278.4467    8.4061 H       943      M_A    0.0000
   6607 H          -3.0426  277.1199   10.9883 H       943      M_A    0.0000
   6608 H          -3.1988  276.1017    9.5295 H       943      M_A    0.0000
   6609 C          -5.3142  277.7217   10.6010 C.3     944      M_A    0.0000
   6610 C          -6.6069  277.0393   10.1714 C.3     944      M_A    0.0000
   6611 O          -6.6418  275.7289   10.7350 O.3     944      M_A    0.0000
   6612 H          -4.8616  277.1489   11.4183 H       944      M_A    0.0000
   6613 H          -5.5265  278.7286   10.9781 H       944      M_A    0.0000
   6614 H          -6.6097  276.9760    9.0742 H       944      M_A    0.0000
   6615 H          -7.4875  277.6111   10.4937 H       944      M_A    0.0000
   6616 C          -6.2619  275.7597   12.0942 C.3     945      M_A    0.0000
   6617 C          -4.7513  275.8280   12.2810 C.3     945      M_A    0.0000
   6618 O          -4.2957  274.5738   12.7863 O.3     945      M_A    0.0000
   6619 H          -6.7202  276.6402   12.5586 H       945      M_A    0.0000
   6620 H          -6.6641  274.8719   12.5953 H       945      M_A    0.0000
   6621 H          -4.5339  276.6255   13.0054 H       945      M_A    0.0000
   6622 H          -4.2414  276.0609   11.3367 H       945      M_A    0.0000
   6623 C          -3.5916  273.8609   11.7919 C.3     946      M_A    0.0000
   6624 C          -2.1357  273.6126   12.1661 C.3     946      M_A    0.0000
   6625 O          -1.3852  273.4042   10.9707 O.3     946      M_A    0.0000
   6626 H          -4.0918  272.8975   11.6415 H       946      M_A    0.0000
   6627 H          -3.6491  274.4165   10.8490 H       946      M_A    0.0000
   6628 H          -2.0951  272.7130   12.7962 H       946      M_A    0.0000
   6629 H          -1.7179  274.4572   12.7302 H       946      M_A    0.0000
   6630 C          -0.7436  274.5959   10.5696 C.3     947      M_A    0.0000
   6631 C          -0.5262  274.6684    9.0634 C.3     947      M_A    0.0000
   6632 O           0.2321  273.5308    8.6553 O.3     947      M_A    0.0000
   6633 H          -1.3654  275.4423   10.8827 H       947      M_A    0.0000
   6634 H           0.2157  274.6761   11.0934 H       947      M_A    0.0000
   6635 H           0.0318  275.5895    8.8441 H       947      M_A    0.0000
   6636 H          -1.4814  274.6977    8.5221 H       947      M_A    0.0000
   6637 C           0.7375  272.8389    9.7771 C.3     948      M_A    0.0000
   6638 C           2.2290  272.5482    9.6656 C.3     948      M_A    0.0000
   6639 O           2.4855  271.2559   10.2135 O.3     948      M_A    0.0000
   6640 H           0.5579  273.4518   10.6676 H       948      M_A    0.0000
   6641 H           0.1791  271.9037    9.8986 H       948      M_A    0.0000
   6642 H           2.7687  273.3134   10.2410 H       948      M_A    0.0000
   6643 H           2.5675  272.5881    8.6216 H       948      M_A    0.0000
   6644 C           3.7765  271.2018   10.7819 C.3     949      M_A    0.0000
   6645 C           4.8313  271.8715    9.9100 C.3     949      M_A    0.0000
   6646 O           6.0578  271.1548   10.0437 O.3     949      M_A    0.0000
   6647 H           3.7442  271.7050   11.7549 H       949      M_A    0.0000
   6648 H           4.0430  270.1534   10.9581 H       949      M_A    0.0000
   6649 H           4.9596  272.9040   10.2640 H       949      M_A    0.0000
   6650 H           4.5228  271.8959    8.8563 H       949      M_A    0.0000
   6651 C           6.6393  271.3918   11.3080 C.3     950      M_A    0.0000
   6652 C           7.9476  272.1674   11.2172 C.3     950      M_A    0.0000
   6653 O           9.0227  271.2380   11.0909 O.3     950      M_A    0.0000
   6654 H           5.9256  271.9631   11.9122 H       950      M_A    0.0000
   6655 H           6.8046  270.4308   11.8083 H       950      M_A    0.0000
   6656 H           8.0623  272.7502   12.1420 H       950      M_A    0.0000
   6657 H           7.9449  272.8580   10.3633 H       950      M_A    0.0000
   6658 C           9.2289  270.5450   12.3034 C.3     951      M_A    0.0000
   6659 C          10.6965  270.4952   12.7098 C.3     951      M_A    0.0000
   6660 O          11.2650  269.2803   12.2232 O.3     951      M_A    0.0000
   6661 H           8.6569  271.0511   13.0893 H       951      M_A    0.0000
   6662 H           8.8305  269.5289   12.2036 H       951      M_A    0.0000
   6663 H          10.7465  270.5195   13.8075 H       951      M_A    0.0000
   6664 H          11.2512  271.3558   12.3126 H       951      M_A    0.0000
   6665 C          12.6748  269.3349   12.2699 C.3     952      M_A    0.0000
   6666 C          13.3328  268.4222   11.2425 C.3     952      M_A    0.0000
   6667 O          14.0921  267.4300   11.9317 O.3     952      M_A    0.0000
   6668 H          12.9845  270.3689   12.0805 H       952      M_A    0.0000
   6669 H          13.0071  269.0676   13.2794 H       952      M_A    0.0000
   6670 H          13.9969  269.0361   10.6181 H       952      M_A    0.0000
   6671 H          12.5853  267.9426   10.5965 H       952      M_A    0.0000
   6672 C          14.5164  266.4191   11.0426 C.3     953      M_A    0.0000
   6673 C          13.9388  265.0521   11.3878 C.3     953      M_A    0.0000
   6674 O          14.9935  264.2162   11.8619 O.3     953      M_A    0.0000
   6675 H          14.1992  266.6966   10.0310 H       953      M_A    0.0000
   6676 H          15.6116  266.3781   11.0484 H       953      M_A    0.0000
   6677 H          13.5045  264.6254   10.4728 H       953      M_A    0.0000
   6678 H          13.1506  265.1312   12.1484 H       953      M_A    0.0000
   6679 C          14.4758  263.0293   12.4240 C.3     954      M_A    0.0000
   6680 C          15.4598  262.3471   13.3662 C.3     954      M_A    0.0000
   6681 O          15.4095  260.9393   13.1393 O.3     954      M_A    0.0000
   6682 H          13.5650  263.2815   12.9789 H       954      M_A    0.0000
   6683 H          14.1939  262.3467   11.6143 H       954      M_A    0.0000
   6684 H          15.1545  262.5719   14.3978 H       954      M_A    0.0000
   6685 H          16.4825  262.7166   13.2127 H       954      M_A    0.0000
   6686 C          16.0768  260.6024   11.9419 C.3     955      M_A    0.0000
   6687 C          16.5765  259.1631   11.9323 C.3     955      M_A    0.0000
   6688 O          17.8771  259.1263   12.5178 O.3     955      M_A    0.0000
   6689 H          15.3792  260.7446   11.1087 H       955      M_A    0.0000
   6690 H          16.9147  261.2934   11.7960 H       955      M_A    0.0000
   6691 H          16.6261  258.8271   10.8870 H       955      M_A    0.0000
   6692 H          15.8968  258.4998   12.4839 H       955      M_A    0.0000
   6693 C          18.3445  257.7978   12.6132 C.3     956      M_A    0.0000
   6694 C          17.4153  256.9046   13.4258 C.3     956      M_A    0.0000
   6695 O          18.1671  255.8030   13.9326 O.3     956      M_A    0.0000
   6696 H          18.4346  257.3922   11.5992 H       956      M_A    0.0000
   6697 H          19.3457  257.8049   13.0590 H       956      M_A    0.0000
   6698 H          16.6220  256.5415   12.7573 H       956      M_A    0.0000
   6699 H          16.9525  257.4573   14.2543 H       956      M_A    0.0000
   6700 C          17.6126  255.3347   15.1433 C.3     957      M_A    0.0000
   6701 C          18.2576  254.0407   15.6238 C.3     957      M_A    0.0000
   6702 O          17.4990  252.9393   15.1268 O.3     957      M_A    0.0000
   6703 H          17.7517  256.1089   15.9064 H       957      M_A    0.0000
   6704 H          16.5346  255.1910   15.0078 H       957      M_A    0.0000
   6705 H          18.2428  254.0409   16.7228 H       957      M_A    0.0000
   6706 H          19.2995  253.9633   15.2854 H       957      M_A    0.0000
   6707 C          18.1286  251.7161   15.4431 C.3     958      M_A    0.0000
   6708 C          19.4563  251.5335   14.7183 C.3     958      M_A    0.0000
   6709 O          19.6813  250.1386   14.5200 O.3     958      M_A    0.0000
   6710 H          18.3046  251.6904   16.5245 H       958      M_A    0.0000
   6711 H          17.4484  250.8927   15.1971 H       958      M_A    0.0000
   6712 H          20.2500  251.9553   15.3510 H       958      M_A    0.0000
   6713 H          19.4602  252.0564   13.7526 H       958      M_A    0.0000
   6714 C          21.0384  249.8891   14.2217 C.3     959      M_A    0.0000
   6715 C          21.2984  248.4383   13.8361 C.3     959      M_A    0.0000
   6716 O          21.9431  247.7832   14.9274 O.3     959      M_A    0.0000
   6717 H          21.3317  250.5389   13.3895 H       959      M_A    0.0000
   6718 H          21.6488  250.1639   15.0895 H       959      M_A    0.0000
   6719 H          21.9550  248.4331   12.9547 H       959      M_A    0.0000
   6720 H          20.3649  247.9179   13.5833 H       959      M_A    0.0000
   6721 C          21.9097  246.3821   14.7591 C.3     960      M_A    0.0000
   6722 C          23.0774  245.6800   15.4408 C.3     960      M_A    0.0000
   6723 O          23.6111  244.7055   14.5456 O.3     960      M_A    0.0000
   6724 H          20.9706  246.0081   15.1824 H       960      M_A    0.0000
   6725 H          21.9059  246.1534   13.6873 H       960      M_A    0.0000
   6726 H          22.6965  245.1882   16.3469 H       960      M_A    0.0000
   6727 H          23.8601  246.3940   15.7298 H       960      M_A    0.0000
   6728 C          24.6787  244.0056   15.1481 C.3     961      M_A    0.0000
   6729 C          25.8571  244.9097   15.4877 C.3     961      M_A    0.0000
   6730 O          27.0602  244.1484   15.3927 O.3     961      M_A    0.0000
   6731 H          24.3078  243.5401   16.0682 H       961      M_A    0.0000
   6732 H          25.0011  243.2025   14.4755 H       961      M_A    0.0000
   6733 H          25.7226  245.2717   16.5167 H       961      M_A    0.0000
   6734 H          25.9051  245.7749   14.8130 H       961      M_A    0.0000
   6735 C          27.1477  243.2188   16.4514 C.3     962      M_A    0.0000
   6736 C          28.5571  242.6704   16.6372 C.3     962      M_A    0.0000
   6737 O          28.6658  241.4378   15.9266 O.3     962      M_A    0.0000
   6738 H          26.8339  243.7194   17.3743 H       962      M_A    0.0000
   6739 H          26.4458  242.3986   16.2625 H       962      M_A    0.0000
   6740 H          28.7168  242.4996   17.7111 H       962      M_A    0.0000
   6741 H          29.3134  243.3804   16.2768 H       962      M_A    0.0000
   6742 C          29.6471  240.6089   16.5120 C.3     963      M_A    0.0000
   6743 C          31.0107  241.2830   16.5984 C.3     963      M_A    0.0000
   6744 O          31.8750  240.6931   15.6284 O.3     963      M_A    0.0000
   6745 H          29.3142  240.3438   17.5219 H       963      M_A    0.0000
   6746 H          29.7207  239.6820   15.9319 H       963      M_A    0.0000
   6747 H          31.4101  241.1145   17.6084 H       963      M_A    0.0000
   6748 H          30.9340  242.3648   16.4256 H       963      M_A    0.0000
   6749 C          33.2280  240.9023   15.9722 C.3     964      M_A    0.0000
   6750 C          33.8923  241.9756   15.1189 C.3     964      M_A    0.0000
   6751 O          35.3008  241.7479   15.1122 O.3     964      M_A    0.0000
   6752 H          33.2717  241.2039   17.0248 H       964      M_A    0.0000
   6753 H          33.7695  239.9544   15.8749 H       964      M_A    0.0000
   6754 H          33.6726  242.9533   15.5703 H       964      M_A    0.0000
   6755 H          33.5048  241.9665   14.0914 H       964      M_A    0.0000
   6756 C          36.0027  242.9647   14.9732 C.3     965      M_A    0.0000
   6757 C          37.3819  242.7803   14.3525 C.3     965      M_A    0.0000
   6758 O          38.3483  242.7038   15.3994 O.3     965      M_A    0.0000
   6759 H          35.4101  243.6318   14.3370 H       965      M_A    0.0000
   6760 H          36.0925  243.4372   15.9580 H       965      M_A    0.0000
   6761 H          37.5874  243.6519   13.7153 H       965      M_A    0.0000
   6762 H          37.4244  241.8737   13.7341 H       965      M_A    0.0000
   6763 C          39.2721  241.6656   15.1512 C.3     966      M_A    0.0000
   6764 C          40.5718  241.8373   15.9276 C.3     966      M_A    0.0000
   6765 O          41.5901  241.0667   15.2911 O.3     966      M_A    0.0000
   6766 H          38.8064  240.7161   15.4384 H       966      M_A    0.0000
   6767 H          39.4781  241.6234   14.0757 H       966      M_A    0.0000
   6768 H          40.4080  241.4704   16.9506 H       966      M_A    0.0000
   6769 H          40.8730  242.8923   15.9755 H       966      M_A    0.0000
   6770 C          42.6474  240.7989   16.1873 C.3     967      M_A    0.0000
   6771 C          43.8660  240.1996   15.4966 C.3     967      M_A    0.0000
   6772 O          44.2605  239.0243   16.2030 O.3     967      M_A    0.0000
   6773 H          42.9356  241.7401   16.6689 H       967      M_A    0.0000
   6774 H          42.2864  240.1217   16.9698 H       967      M_A    0.0000
   6775 H          44.6741  240.9440   15.5262 H       967      M_A    0.0000
   6776 H          43.6512  239.9540   14.4480 H       967      M_A    0.0000
   6777 C          45.5963  238.6839   15.8993 C.3     968      M_A    0.0000
   6778 C          45.7629  237.2098   15.5518 C.3     968      M_A    0.0000
   6779 O          47.1319  236.8495   15.7303 O.3     968      M_A    0.0000
   6780 H          45.9198  239.2914   15.0466 H       968      M_A    0.0000
   6781 H          46.2319  238.9441   16.7534 H       968      M_A    0.0000
   6782 H          45.4732  237.0733   14.5004 H       968      M_A    0.0000
   6783 H          45.1221  236.5759   16.1792 H       968      M_A    0.0000
   6784 C          47.2536  235.4701   16.0042 C.3     969      M_A    0.0000
   6785 C          48.6404  235.0910   16.5088 C.3     969      M_A    0.0000
   6786 O          49.4859  234.8493   15.3851 O.3     969      M_A    0.0000
   6787 H          46.5109  235.2045   16.7650 H       969      M_A    0.0000
   6788 H          47.0156  234.9055   15.0955 H       969      M_A    0.0000
   6789 H          48.5451  234.1760   17.1102 H       969      M_A    0.0000
   6790 H          49.0678  235.8833   17.1377 H       969      M_A    0.0000
   6791 C          49.8049  236.0588   14.7309 C.3     970      M_A    0.0000
   6792 C          51.3000  236.2174   14.4846 C.3     970      M_A    0.0000
   6793 O          51.7983  237.2444   15.3407 O.3     970      M_A    0.0000
   6794 H          49.2797  236.0774   13.7692 H       970      M_A    0.0000
   6795 H          49.4305  236.8962   15.3307 H       970      M_A    0.0000
   6796 H          51.4431  236.5034   13.4331 H       970      M_A    0.0000
   6797 H          51.8381  235.2783   14.6709 H       970      M_A    0.0000
   6798 C          53.1453  237.5379   15.0369 C.3     971      M_A    0.0000
   6799 C          54.0241  236.2938   14.9999 C.3     971      M_A    0.0000
   6800 O          55.3809  236.6973   14.8209 O.3     971      M_A    0.0000
   6801 H          53.1770  238.0279   14.0572 H       971      M_A    0.0000
   6802 H          53.5293  238.2489   15.7772 H       971      M_A    0.0000
   6803 H          53.7018  235.6748   14.1508 H       971      M_A    0.0000
   6804 H          53.9249  235.7061   15.9223 H       971      M_A    0.0000
   6805 C          56.2567  235.6096   15.0274 C.3     972      M_A    0.0000
   6806 C          57.0432  235.2422   13.7752 C.3     972      M_A    0.0000
   6807 O          57.4678  233.8844   13.8836 O.3     972      M_A    0.0000
   6808 H          56.9585  235.8808   15.8242 H       972      M_A    0.0000
   6809 H          55.6761  234.7474   15.3746 H       972      M_A    0.0000
   6810 H          57.9178  235.9052   13.7161 H       972      M_A    0.0000
   6811 H          56.4377  235.3759   12.8688 H       972      M_A    0.0000
   6812 C          57.0936  233.3422   15.1321 C.3     973      M_A    0.0000
   6813 C          58.0975  232.3222   15.6548 C.3     973      M_A    0.0000
   6814 O          57.5362  231.0173   15.5203 O.3     973      M_A    0.0000
   6815 H          57.0107  234.1642   15.8520 H       973      M_A    0.0000
   6816 H          56.1035  232.8822   15.0368 H       973      M_A    0.0000
   6817 H          58.2853  232.5423   16.7151 H       973      M_A    0.0000
   6818 H          59.0486  232.3808   15.1088 H       973      M_A    0.0000
   6819 C          58.1709  230.1082   16.3940 C.3     974      M_A    0.0000
   6820 C          59.4721  229.5567   15.8247 C.3     974      M_A    0.0000
   6821 O          59.8477  228.4033   16.5760 O.3     974      M_A    0.0000
   6822 H          58.3839  230.6284   17.3347 H       974      M_A    0.0000
   6823 H          57.4790  229.2880   16.6166 H       974      M_A    0.0000
   6824 H          60.2425  230.3346   15.9214 H       974      M_A    0.0000
   6825 H          59.3657  229.2960   14.7632 H       974      M_A    0.0000
   6826 C          61.1921  228.0570   16.3206 C.3     975      M_A    0.0000
   6827 C          62.0592  228.1035   17.5726 C.3     975      M_A    0.0000
   6828 O          63.2848  228.7619   17.2561 O.3     975      M_A    0.0000
   6829 H          61.2125  227.0417   15.9086 H       975      M_A    0.0000
   6830 H          61.5942  228.7337   15.5581 H       975      M_A    0.0000
   6831 H          62.2591  227.0693   17.8865 H       975      M_A    0.0000
   6832 H          61.5507  228.6286   18.3922 H       975      M_A    0.0000
   6833 C          64.0894  227.9487   16.4291 C.3     976      M_A    0.0000
   6834 C          65.5792  228.1924   16.6353 C.3     976      M_A    0.0000
   6835 O          66.1145  228.7824   15.4516 O.3     976      M_A    0.0000
   6836 H          63.8636  226.9003   16.6547 H       976      M_A    0.0000
   6837 H          63.8191  228.1295   15.3825 H       976      M_A    0.0000
   6838 H          66.0601  227.2217   16.8211 H       976      M_A    0.0000
   6839 H          65.7619  228.8472   17.4979 H       976      M_A    0.0000
   6840 C          67.0390  229.7991   15.7745 C.3     977      M_A    0.0000
   6841 C          68.4855  229.3294   15.6823 C.3     977      M_A    0.0000
   6842 O          69.0896  229.4530   16.9689 O.3     977      M_A    0.0000
   6843 H          66.8884  230.6330   15.0796 H       977      M_A    0.0000
   6844 H          66.8252  230.1654   16.7851 H       977      M_A    0.0000
   6845 H          69.0067  229.9731   14.9597 H       977      M_A    0.0000
   6846 H          68.5470  228.2890   15.3360 H       977      M_A    0.0000
   6847 C          70.0653  228.4510   17.1608 C.3     978      M_A    0.0000
   6848 C          71.3345  228.9837   17.8140 C.3     978      M_A    0.0000
   6849 O          72.4499  228.2474   17.3144 O.3     978      M_A    0.0000
   6850 H          69.6348  227.6707   17.7986 H       978      M_A    0.0000
   6851 H          70.3020  227.9960   16.1923 H       978      M_A    0.0000
   6852 H          71.2451  228.8383   18.8998 H       978      M_A    0.0000
   6853 H          71.4695  230.0546   17.6117 H       978      M_A    0.0000
   6854 C          73.5327  228.3069   18.2181 C.3     979      M_A    0.0000
   6855 C          74.6685  229.1905   17.7174 C.3     979      M_A    0.0000
   6856 O          75.8610  228.8451   18.4205 O.3     979      M_A    0.0000
   6857 H          73.1634  228.7040   19.1703 H       979      M_A    0.0000
   6858 H          73.8986  227.2901   18.4011 H       979      M_A    0.0000
   6859 H          74.4015  230.2366   17.9229 H       979      M_A    0.0000
   6860 H          74.8213  229.0716   16.6363 H       979      M_A    0.0000
   6861 C          76.3924  227.6305   17.9359 C.3     980      M_A    0.0000
   6862 C          77.5598  227.1237   18.7737 C.3     980      M_A    0.0000
   6863 O          78.7788  227.5234   18.1491 O.3     980      M_A    0.0000
   6864 H          75.5941  226.8797   17.9431 H       980      M_A    0.0000
   6865 H          76.7077  227.7709   16.8957 H       980      M_A    0.0000
   6866 H          77.5000  226.0269   18.8120 H       980      M_A    0.0000
   6867 H          77.5163  227.5151   19.7989 H       980      M_A    0.0000
   6868 C          79.7000  227.9958   19.1087 C.3     981      M_A    0.0000
   6869 C          81.1485  227.8126   18.6731 C.3     981      M_A    0.0000
   6870 O          81.9142  227.3851   19.7986 O.3     981      M_A    0.0000
   6871 H          79.5078  229.0621   19.2730 H       981      M_A    0.0000
   6872 H          79.5228  227.4757   20.0570 H       981      M_A    0.0000
   6873 H          81.5205  228.7819   18.3126 H       981      M_A    0.0000
   6874 H          81.2322  227.0786   17.8604 H       981      M_A    0.0000
   6875 C          82.9786  226.5522   19.3912 C.3     982      M_A    0.0000
   6876 C          84.2277  226.7347   20.2444 C.3     982      M_A    0.0000
   6877 O          85.3705  226.3927   19.4616 O.3     982      M_A    0.0000
   6878 H          82.6456  225.5106   19.4623 H       982      M_A    0.0000
   6879 H          83.2073  226.7574   18.3392 H       982      M_A    0.0000
   6880 H          84.1502  226.0610   21.1093 H       982      M_A    0.0000
   6881 H          84.3163  227.7671   20.6085 H       982      M_A    0.0000
   6882 C          86.4612  226.0544   20.2914 C.3     983      M_A    0.0000
   6883 C          87.6241  227.0301   20.1607 C.3     983      M_A    0.0000
   6884 O          88.8464  226.2980   20.2375 O.3     983      M_A    0.0000
   6885 H          86.1130  226.0496   21.3305 H       983      M_A    0.0000
   6886 H          86.7918  225.0387   20.0465 H       983      M_A    0.0000
   6887 H          87.5628  227.7458   20.9925 H       983      M_A    0.0000
   6888 H          87.5766  227.5848   19.2141 H       983      M_A    0.0000
   6889 C          89.9406  227.1138   19.8772 C.3     984      M_A    0.0000
   6890 C          90.9252  227.3162   21.0222 C.3     984      M_A    0.0000
   6891 O          91.6326  228.5365   20.8071 O.3     984      M_A    0.0000
   6892 H          90.4607  226.6390   19.0376 H       984      M_A    0.0000
   6893 H          89.5623  228.0819   19.5297 H       984      M_A    0.0000
   6894 H          91.6271  226.4704   21.0208 H       984      M_A    0.0000
   6895 H          90.4106  227.3456   21.9920 H       984      M_A    0.0000
   6896 C          92.3185  228.5053   19.5737 C.3     985      M_A    0.0000
   6897 C          93.6084  229.3158   19.5976 C.3     985      M_A    0.0000
   6898 O          94.7138  228.4198   19.4932 O.3     985      M_A    0.0000
   6899 H          92.5559  227.4614   19.3395 H       985      M_A    0.0000
   6900 H          91.6526  228.8795   18.7878 H       985      M_A    0.0000
   6901 H          93.6527  229.8564   20.5535 H       985      M_A    0.0000
   6902 H          93.6374  230.0462   18.7780 H       985      M_A    0.0000
   6903 C          95.8708  229.1025   19.0597 C.3     986      M_A    0.0000
   6904 C          97.0470  228.9300   20.0128 C.3     986      M_A    0.0000
   6905 O          97.6700  230.1991   20.2051 O.3     986      M_A    0.0000
   6906 H          96.1492  228.7138   18.0736 H       986      M_A    0.0000
   6907 H          95.6328  230.1659   18.9432 H       986      M_A    0.0000
   6908 H          97.7577  228.2291   19.5527 H       986      M_A    0.0000
   6909 H          96.7226  228.5199   20.9786 H       986      M_A    0.0000
   6910 C          99.0677  230.0540   20.3398 C.3     987      M_A    0.0000
   6911 C          99.4607  229.2866   21.5960 C.3     987      M_A    0.0000
   6912 O         100.7402  229.7448   22.0306 O.3     987      M_A    0.0000
   6913 H          99.4432  229.5180   19.4608 H       987      M_A    0.0000
   6914 H          99.5288  231.0481   20.3455 H       987      M_A    0.0000
   6915 H          99.5117  228.2189   21.3404 H       987      M_A    0.0000
   6916 H          98.7207  229.4226   22.3960 H       987      M_A    0.0000
   6917 C         101.2398  228.9241   23.0647 C.3     988      M_A    0.0000
   6918 C         102.2723  229.6338   23.9317 C.3     988      M_A    0.0000
   6919 O         103.5701  229.1545   23.5826 O.3     988      M_A    0.0000
   6920 H         100.3976  228.6132   23.6932 H       988      M_A    0.0000
   6921 H         101.6757  228.0212   22.6220 H       988      M_A    0.0000
   6922 H         102.0549  229.3965   24.9826 H       988      M_A    0.0000
   6923 H         102.2253  230.7230   23.7993 H       988      M_A    0.0000
   6924 C         104.5169  229.5160   24.5652 C.3     989      M_A    0.0000
   6925 C         105.3780  230.7003   24.1442 C.3     989      M_A    0.0000
   6926 O         106.6332  230.6156   24.8174 O.3     989      M_A    0.0000
   6927 H         103.9770  229.7743   25.4832 H       989      M_A    0.0000
   6928 H         105.1499  228.6485   24.7843 H       989      M_A    0.0000
   6929 H         104.8562  231.6218   24.4383 H       989      M_A    0.0000
   6930 H         105.5343  230.7152   23.0573 H       989      M_A    0.0000
   6931 C         107.5967  229.9861   24.0000 C.3     990      M_A    0.0000
   6932 C         108.8636  229.6174   24.7619 C.3     990      M_A    0.0000
   6933 O         109.9296  230.4495   24.3071 O.3     990      M_A    0.0000
   6934 H         107.1513  229.0753   23.5840 H       990      M_A    0.0000
   6935 H         107.8400  230.6499   23.1626 H       990      M_A    0.0000
   6936 H         109.0935  228.5638   24.5499 H       990      M_A    0.0000
   6937 H         108.7283  229.7376   25.8451 H       990      M_A    0.0000
   6938 C         110.8461  230.7021   25.3506 C.3     991      M_A    0.0000
   6939 C         112.1563  229.9438   25.1787 C.3     991      M_A    0.0000
   6940 O         112.4626  229.2762   26.4019 O.3     991      M_A    0.0000
   6941 H         111.0550  231.7776   25.3709 H       991      M_A    0.0000
   6942 H         110.3788  230.4358   26.3056 H       991      M_A    0.0000
   6943 H         112.9433  230.6737   24.9425 H       991      M_A    0.0000
   6944 H         112.0929  229.2161   24.3586 H       991      M_A    0.0000
   6945 C         113.2895  228.1567   26.1664 C.3     992      M_A    0.0000
   6946 C         114.5245  228.1399   27.0586 C.3     992      M_A    0.0000
   6947 O         115.4407  227.1697   26.5535 O.3     992      M_A    0.0000
   6948 H         112.7015  227.2508   26.3521 H       992      M_A    0.0000
   6949 H         113.5864  228.1503   25.1115 H       992      M_A    0.0000
   6950 H         114.2070  227.8631   28.0738 H       992      M_A    0.0000
   6951 H         115.0044  229.1269   27.0963 H       992      M_A    0.0000
   6952 C         116.3865  226.8150   27.5396 C.3     993      M_A    0.0000
   6953 C         117.6318  226.1626   26.9522 C.3     993      M_A    0.0000
   6954 O         117.5078  224.7465   27.0754 O.3     993      M_A    0.0000
   6955 H         116.6786  227.7241   28.0775 H       993      M_A    0.0000
   6956 H         115.9115  226.1400   28.2605 H       993      M_A    0.0000
   6957 H         118.5020  226.5141   27.5241 H       993      M_A    0.0000
   6958 H         117.7683  226.4380   25.8978 H       993      M_A    0.0000
   6959 C         118.7755  224.1461   27.2333 C.3     994      M_A    0.0000
   6960 C         119.3267  223.5847   25.9285 C.3     994      M_A    0.0000
   6961 O         119.6835  222.2183   26.1328 O.3     994      M_A    0.0000
   6962 H         119.4681  224.9032   27.6181 H       994      M_A    0.0000
   6963 H         118.7008  223.3512   27.9840 H       994      M_A    0.0000
   6964 H         120.2174  224.1683   25.6564 H       994      M_A    0.0000
   6965 H         118.5916  223.6642   25.1164 H       994      M_A    0.0000
   6966 C         120.1667  221.6443   24.9371 C.3     995      M_A    0.0000
   6967 C         120.4461  220.1526   25.0722 C.3     995      M_A    0.0000
   6968 O         121.7328  219.8764   24.5210 O.3     995      M_A    0.0000
   6969 H         119.4152  221.7982   24.1545 H       995      M_A    0.0000
   6970 H         121.0773  222.1724   24.6325 H       995      M_A    0.0000
   6971 H         119.6730  219.6095   24.5106 H       995      M_A    0.0000
   6972 H         120.4098  219.8321   26.1220 H       995      M_A    0.0000
   6973 C         121.8461  218.5121   24.1764 C.3     996      M_A    0.0000
   6974 C         123.0547  217.8421   24.8180 C.3     996      M_A    0.0000
   6975 O         123.6871  217.0113   23.8456 O.3     996      M_A    0.0000
   6976 H         120.9356  217.9986   24.5052 H       996      M_A    0.0000
   6977 H         121.9017  218.4251   23.0853 H       996      M_A    0.0000
   6978 H         122.6982  217.2307   25.6589 H       996      M_A    0.0000
   6979 H         123.7682  218.5846   25.1997 H       996      M_A    0.0000
   6980 C         124.9199  216.5239   24.3309 C.3     997      M_A    0.0000
   6981 C         125.8927  216.1688   23.2134 C.3     997      M_A    0.0000
   6982 O         127.0463  215.5568   23.7883 O.3     997      M_A    0.0000
   6983 H         125.3690  217.2973   24.9642 H       997      M_A    0.0000
   6984 H         124.7317  215.6465   24.9601 H       997      M_A    0.0000
   6985 H         126.1773  217.0990   22.7018 H       997      M_A    0.0000
   6986 H         125.4321  215.4911   22.4822 H       997      M_A    0.0000
   6987 C         127.9461  216.5350   24.2637 C.3     998      M_A    0.0000
   6988 C         129.3588  215.9948   24.4472 C.3     998      M_A    0.0000
   6989 O         129.9039  216.5380   25.6487 O.3     998      M_A    0.0000
   6990 H         127.9691  217.3595   23.5421 H       998      M_A    0.0000
   6991 H         127.5686  216.9335   25.2122 H       998      M_A    0.0000
   6992 H         129.9600  216.3144   23.5844 H       998      M_A    0.0000
   6993 H         129.3647  214.8975   24.4938 H       998      M_A    0.0000
   6994 C         131.2930  216.7510   25.5152 C.3     999      M_A    0.0000
   6995 C         132.1077  215.9808   26.5469 C.3     999      M_A    0.0000
   6996 O         133.2848  216.7278   26.8507 O.3     999      M_A    0.0000
   6997 H         131.5940  216.4320   24.5109 H       999      M_A    0.0000
   6998 H         131.4971  217.8245   25.5985 H       999      M_A    0.0000
   6999 H         132.3816  215.0108   26.1088 H       999      M_A    0.0000
   7000 H         131.5282  215.8030   27.4627 H       999      M_A    0.0000
   7001 C         133.8551  216.2890   28.0651 C.3    1000      M_A    0.0000
   7002 C         135.1422  217.0275   28.4109 C.3    1000      M_A    0.0000
   7003 O         136.1536  216.0676   28.7128 O.3    1000      M_A    0.0000
   7004 H         133.1239  216.4500   28.8654 H      1000      M_A    0.0000
   7005 H         134.0447  215.2116   27.9994 H      1000      M_A    0.0000
   7006 H         134.9474  217.6566   29.2909 H      1000      M_A    0.0000
   7007 H         135.4691  217.6709   27.5831 H      1000      M_A    0.0000
   7008 C         137.4222  216.6831   28.7800 C.3    1001      M_A    0.0000
   7009 C         138.5669  215.6872   28.6417 C.3    1001      M_A    0.0000
   7010 O         139.7737  216.3144   29.0731 O.3    1001      M_A    0.0000
   7011 H         137.4892  217.4200   27.9716 H      1001      M_A    0.0000
   7012 H         137.5048  217.2230   29.7301 H      1001      M_A    0.0000
   7013 H         138.6479  215.4070   27.5820 H      1001      M_A    0.0000
   7014 H         138.3821  214.7804   29.2330 H      1001      M_A    0.0000
   7015 C         140.8987  215.5621   28.6716 C.3    1002      M_A    0.0000
   7016 C         141.9934  215.5307   29.7308 C.3    1002      M_A    0.0000
   7017 O         143.2160  215.9667   29.1383 O.3    1002      M_A    0.0000
   7018 H         140.5702  214.5371   28.4659 H      1002      M_A    0.0000
   7019 H         141.2900  215.9800   27.7371 H      1002      M_A    0.0000
   7020 H         142.0960  214.4948   30.0834 H      1002      M_A    0.0000
   7021 H         141.7407  216.1710   30.5866 H      1002      M_A    0.0000
   7022 C         144.1980  216.1911   30.1272 C.3    1003      M_A    0.0000
   7023 C         143.8807  217.3925   31.0089 C.3    1003      M_A    0.0000
   7024 O         144.6587  217.3029   32.2016 O.3    1003      M_A    0.0000
   7025 H         144.2646  215.2947   30.7541 H      1003      M_A    0.0000
   7026 H         145.1693  216.3282   29.6384 H      1003      M_A    0.0000
   7027 H         142.8103  217.3598   31.2560 H      1003      M_A    0.0000
   7028 H         144.0942  218.3368   30.4905 H      1003      M_A    0.0000
   7029 C         144.5888  218.5070   32.9351 C.3    1004      M_A    0.0000
   7030 C         145.1969  218.3840   34.3266 C.3    1004      M_A    0.0000
   7031 O         144.1587  218.0698   35.2536 O.3    1004      M_A    0.0000
   7032 H         145.1272  219.2808   32.3762 H      1004      M_A    0.0000
   7033 H         143.5404  218.8179   33.0078 H      1004      M_A    0.0000
   7034 H         145.6514  219.3505   34.5859 H      1004      M_A    0.0000
   7035 H         145.9749  217.6093   34.3563 H      1004      M_A    0.0000
   7036 C         144.4079  218.6723   36.5056 C.3    1005      M_A    0.0000
   7037 C         145.8618  218.5415   36.9420 C.3    1005      M_A    0.0000
   7038 O         146.0071  217.3379   37.6944 O.3    1005      M_A    0.0000
   7039 H         144.1504  219.7350   36.4321 H      1005      M_A    0.0000
   7040 H         143.7473  218.2209   37.2545 H      1005      M_A    0.0000
   7041 H         146.1076  219.4088   37.5707 H      1005      M_A    0.0000
   7042 H         146.5394  218.5291   36.0779 H      1005      M_A    0.0000
   7043 C         147.3344  216.8624   37.6244 C.3    1006      M_A    0.0000
   7044 C         147.6916  216.3171   36.2474 C.3    1006      M_A    0.0000
   7045 O         148.8775  215.5316   36.3598 O.3    1006      M_A    0.0000
   7046 H         148.0089  217.6913   37.8673 H      1006      M_A    0.0000
   7047 H         147.4738  216.0861   38.3853 H      1006      M_A    0.0000
   7048 H         147.8695  217.1712   35.5789 H      1006      M_A    0.0000
   7049 H         146.8757  215.7095   35.8335 H      1006      M_A    0.0000
   7050 C         148.5951  214.2835   36.9559 C.3    1007      M_A    0.0000
   7051 C         149.7502  213.7608   37.8008 C.3    1007      M_A    0.0000
   7052 O         150.3153  212.6237   37.1499 O.3    1007      M_A    0.0000
   7053 H         147.7103  214.3996   37.5920 H      1007      M_A    0.0000
   7054 H         148.3470  213.5623   36.1689 H      1007      M_A    0.0000
   7055 H         149.3497  213.4705   38.7823 H      1007      M_A    0.0000
   7056 H         150.5192  214.5310   37.9477 H      1007      M_A    0.0000
   7057 C         151.0558  211.8423   38.0630 C.3    1008      M_A    0.0000
   7058 C         152.3854  211.3692   37.4888 C.3    1008      M_A    0.0000
   7059 O         152.6369  210.0427   37.9502 O.3    1008      M_A    0.0000
   7060 H         151.2467  212.4476   38.9564 H      1008      M_A    0.0000
   7061 H         150.4490  210.9820   38.3675 H      1008      M_A    0.0000
   7062 H         153.1719  212.0471   37.8489 H      1008      M_A    0.0000
   7063 H         152.3772  211.3904   36.3908 H      1008      M_A    0.0000
   7064 C         151.5022  209.2246   37.7611 C.3    1009      M_A    0.0000
   7065 C         151.8123  207.7420   37.9258 C.3    1009      M_A    0.0000
   7066 O         152.2548  207.2250   36.6717 O.3    1009      M_A    0.0000
   7067 H         150.7433  209.5154   38.4962 H      1009      M_A    0.0000
   7068 H         151.0896  209.4150   36.7638 H      1009      M_A    0.0000
   7069 H         150.8886  207.2337   38.2362 H      1009      M_A    0.0000
   7070 H         152.5805  207.5766   38.6930 H      1009      M_A    0.0000
   7071 C         153.6646  207.1739   36.6220 C.3    1010      M_A    0.0000
   7072 C         154.1841  205.8979   35.9714 C.3    1010      M_A    0.0000
   7073 O         155.2032  205.3431   36.8017 O.3    1010      M_A    0.0000
   7074 H         154.0191  208.0380   36.0487 H      1010      M_A    0.0000
   7075 H         154.0592  207.2657   37.6403 H      1010      M_A    0.0000
   7076 H         154.6025  206.1624   34.9901 H      1010      M_A    0.0000
   7077 H         153.3781  205.1664   35.8253 H      1010      M_A    0.0000
   7078 C         156.2049  204.7284   36.0198 C.3    1011      M_A    0.0000
   7079 C         155.9706  203.2346   35.8327 C.3    1011      M_A    0.0000
   7080 O         157.1805  202.5405   36.1330 O.3    1011      M_A    0.0000
   7081 H         156.2197  205.2142   35.0376 H      1011      M_A    0.0000
   7082 H         157.1791  204.9012   36.4912 H      1011      M_A    0.0000
   7083 H         155.6901  203.0630   34.7839 H      1011      M_A    0.0000
   7084 H         155.1591  202.8728   36.4783 H      1011      M_A    0.0000
   7085 C         156.9514  201.1500   36.2148 C.3    1012      M_A    0.0000
   7086 C         158.1352  200.3927   36.8035 C.3    1012      M_A    0.0000
   7087 O         158.7885  199.6785   35.7552 O.3    1012      M_A    0.0000
   7088 H         156.0708  200.9839   36.8456 H      1012      M_A    0.0000
   7089 H         156.7202  200.7689   35.2136 H      1012      M_A    0.0000
   7090 H         157.7493  199.6882   37.5536 H      1012      M_A    0.0000
   7091 H         158.8436  201.0750   37.2922 H      1012      M_A    0.0000
   7092 C         159.5098  198.5811   36.2728 C.3    1013      M_A    0.0000
   7093 C         160.8700  198.9818   36.8302 C.3    1013      M_A    0.0000
   7094 O         161.8679  198.1447   36.2477 O.3    1013      M_A    0.0000
   7095 H         158.9150  198.1263   37.0730 H      1013      M_A    0.0000
   7096 H         159.6321  197.8320   35.4822 H      1013      M_A    0.0000
   7097 H         160.8476  198.8364   37.9194 H      1013      M_A    0.0000
   7098 H         161.0938  200.0362   36.6198 H      1013      M_A    0.0000
   7099 C         162.9145  197.9036   37.1637 C.3    1014      M_A    0.0000
   7100 C         164.2248  197.5395   36.4768 C.3    1014      M_A    0.0000
   7101 O         164.3755  196.1209   36.5013 O.3    1014      M_A    0.0000
   7102 H         163.0632  198.8103   37.7609 H      1014      M_A    0.0000
   7103 H         162.6111  197.1017   37.8463 H      1014      M_A    0.0000
   7104 H         165.0445  198.0135   37.0347 H      1014      M_A    0.0000
   7105 H         164.2477  197.9025   35.4405 H      1014      M_A    0.0000
   7106 C         163.2349  195.4882   35.9617 C.3    1015      M_A    0.0000
   7107 C         163.3031  193.9693   36.0606 C.3    1015      M_A    0.0000
   7108 O         163.3532  193.4267   34.7420 O.3    1015      M_A    0.0000
   7109 H         162.3544  195.8434   36.5090 H      1015      M_A    0.0000
   7110 H         163.1216  195.7932   34.9151 H      1015      M_A    0.0000
   7111 H         162.3967  193.6209   36.5754 H      1015      M_A    0.0000
   7112 H         164.1813  193.6447   36.6347 H      1015      M_A    0.0000
   7113 C         164.6340  193.6065   34.1763 C.3    1016      M_A    0.0000
   7114 C         165.3123  192.2880   33.8258 C.3    1016      M_A    0.0000
   7115 O         166.5278  192.1877   34.5663 O.3    1016      M_A    0.0000
   7116 H         164.5256  194.2065   33.2657 H      1016      M_A    0.0000
   7117 H         165.2550  194.1753   34.8776 H      1016      M_A    0.0000
   7118 H         165.5288  192.2928   32.7483 H      1016      M_A    0.0000
   7119 H         164.6627  191.4315   34.0511 H      1016      M_A    0.0000
   7120 C         167.0669  190.8869   34.4675 C.3    1017      M_A    0.0000
   7121 C         168.2623  190.6744   35.3880 C.3    1017      M_A    0.0000
   7122 O         169.4289  190.4895   34.5876 O.3    1017      M_A    0.0000
   7123 H         166.2813  190.1692   34.7295 H      1017      M_A    0.0000
   7124 H         167.3545  190.7000   33.4266 H      1017      M_A    0.0000
   7125 H         168.0730  189.7738   35.9889 H      1017      M_A    0.0000
   7126 H         168.4021  191.5273   36.0656 H      1017      M_A    0.0000
   7127 C         170.5826  190.4107   35.3973 C.3    1018      M_A    0.0000
   7128 C         171.8713  190.3964   34.5846 C.3    1018      M_A    0.0000
   7129 O         172.5842  189.1959   34.8784 O.3    1018      M_A    0.0000
   7130 H         170.5914  191.2780   36.0671 H      1018      M_A    0.0000
   7131 H         170.5190  189.5105   36.0191 H      1018      M_A    0.0000
   7132 H         172.4695  191.2698   34.8801 H      1018      M_A    0.0000
   7133 H         171.6658  190.4580   33.5075 H      1018      M_A    0.0000
   7134 C         173.1168  189.2385   36.1850 C.3    1019      M_A    0.0000
   7135 C         174.6361  189.1256   36.2045 C.3    1019      M_A    0.0000
   7136 O         174.9925  187.7441   36.1859 O.3    1019      M_A    0.0000
   7137 H         172.8226  190.1889   36.6445 H      1019      M_A    0.0000
   7138 H         172.6710  188.4308   36.7765 H      1019      M_A    0.0000
   7139 H         175.0002  189.5944   37.1295 H      1019      M_A    0.0000
   7140 H         175.0869  189.6420   35.3465 H      1019      M_A    0.0000
   7141 C         174.8094  187.1985   34.8970 C.3    1020      M_A    0.0000
   7142 C         175.6903  185.9814   34.6432 C.3    1020      M_A    0.0000
   7143 O         176.5151  186.2421   33.5086 O.3    1020      M_A    0.0000
   7144 H         173.7580  186.9072   34.7940 H      1020      M_A    0.0000
   7145 H         175.0144  187.9744   34.1507 H      1020      M_A    0.0000
   7146 H         175.0343  185.1231   34.4408 H      1020      M_A    0.0000
   7147 H         176.3142  185.7499   35.5168 H      1020      M_A    0.0000
   7148 C         177.5157  185.2547   33.3811 C.3    1021      M_A    0.0000
   7149 C         178.5549  185.3237   34.4932 C.3    1021      M_A    0.0000
   7150 O         179.4019  184.1793   34.3997 O.3    1021      M_A    0.0000
   7151 H         177.0322  184.2715   33.4036 H      1021      M_A    0.0000
   7152 H         178.0007  185.3647   32.4045 H      1021      M_A    0.0000
   7153 H         178.0240  185.3198   35.4556 H      1021      M_A    0.0000
   7154 H         179.1538  186.2417   34.4248 H      1021      M_A    0.0000
   7155 C         178.6744  183.0547   33.9541 C.3    1022      M_A    0.0000
   7156 C         178.9247  181.8170   34.8067 C.3    1022      M_A    0.0000
   7157 O         179.6061  180.8456   34.0142 O.3    1022      M_A    0.0000
   7158 H         177.6072  183.3017   33.9864 H      1022      M_A    0.0000
   7159 H         178.9377  182.8526   32.9096 H      1022      M_A    0.0000
   7160 H         177.9505  181.4225   35.1279 H      1022      M_A    0.0000
   7161 H         179.5185  182.0587   35.6984 H      1022      M_A    0.0000
   7162 C         180.6996  180.3016   34.7221 C.3    1023      M_A    0.0000
   7163 C         180.8331  178.7959   34.5310 C.3    1023      M_A    0.0000
   7164 O         181.7406  178.2893   35.5085 O.3    1023      M_A    0.0000
   7165 H         181.6145  180.7899   34.3681 H      1023      M_A    0.0000
   7166 H         180.5865  180.5381   35.7862 H      1023      M_A    0.0000
   7167 H         181.2293  178.6149   33.5219 H      1023      M_A    0.0000
   7168 H         179.8611  178.2931   34.6235 H      1023      M_A    0.0000
   7169 C         183.0582  178.7157   35.2352 C.3    1024      M_A    0.0000
   7170 C         183.7558  179.2923   36.4609 C.3    1024      M_A    0.0000
   7171 O         184.8999  180.0291   36.0320 O.3    1024      M_A    0.0000
   7172 H         183.6289  177.8541   34.8707 H      1024      M_A    0.0000
   7173 H         183.0307  179.4606   34.4317 H      1024      M_A    0.0000
   7174 H         184.0673  178.4546   37.1005 H      1024      M_A    0.0000
   7175 H         183.0828  179.9430   37.0352 H      1024      M_A    0.0000
   7176 C         185.8182  180.1873   37.0922 C.3    1025      M_A    0.0000
   7177 C         186.4972  181.5513   37.0834 C.3    1025      M_A    0.0000
   7178 O         187.6687  181.4740   36.2726 O.3    1025      M_A    0.0000
   7179 H         185.2764  180.0633   38.0367 H      1025      M_A    0.0000
   7180 H         186.5696  179.3917   37.0327 H      1025      M_A    0.0000
   7181 H         186.7726  181.8008   38.1177 H      1025      M_A    0.0000
   7182 H         185.8249  182.3304   36.6999 H      1025      M_A    0.0000
   7183 C         188.2360  182.7538   36.0916 C.3    1026      M_A    0.0000
   7184 C         187.3578  183.6727   35.2513 C.3    1026      M_A    0.0000
   7185 O         188.1613  184.7389   34.7479 O.3    1026      M_A    0.0000
   7186 H         188.3852  183.2057   37.0788 H      1026      M_A    0.0000
   7187 H         189.2210  182.6426   35.6242 H      1026      M_A    0.0000
   7188 H         186.5663  184.0735   35.9000 H      1026      M_A    0.0000
   7189 H         186.8903  183.1288   34.4196 H      1026      M_A    0.0000
   7190 C         188.5241  185.6239   35.7860 C.3    1027      M_A    0.0000
   7191 C         189.1061  186.9326   35.2664 C.3    1027      M_A    0.0000
   7192 O         190.5036  186.9578   35.5533 O.3    1027      M_A    0.0000
   7193 H         187.6292  185.8411   36.3801 H      1027      M_A    0.0000
   7194 H         189.2460  185.1245   36.4422 H      1027      M_A    0.0000
   7195 H         188.6016  187.7593   35.7859 H      1027      M_A    0.0000
   7196 H         188.9418  187.0426   34.1861 H      1027      M_A    0.0000
   7197 C         191.2030  187.6856   34.5665 C.3    1028      M_A    0.0000
   7198 C         192.5135  187.0207   34.1640 C.3    1028      M_A    0.0000
   7199 O         193.5784  187.6303   34.8921 O.3    1028      M_A    0.0000
   7200 H         190.5596  187.7722   33.6836 H      1028      M_A    0.0000
   7201 H         191.3931  188.6981   34.9403 H      1028      M_A    0.0000
   7202 H         192.6577  187.1783   33.0859 H      1028      M_A    0.0000
   7203 H         192.4918  185.9408   34.3625 H      1028      M_A    0.0000
   7204 C         194.8096  187.4418   34.2278 C.3    1029      M_A    0.0000
   7205 C         195.4287  186.0792   34.5127 C.3    1029      M_A    0.0000
   7206 O         196.7052  186.2745   35.1195 O.3    1029      M_A    0.0000
   7207 H         194.6360  187.5379   33.1500 H      1029      M_A    0.0000
   7208 H         195.4995  188.2393   34.5260 H      1029      M_A    0.0000
   7209 H         195.5452  185.5516   33.5555 H      1029      M_A    0.0000
   7210 H         194.7873  185.4779   35.1708 H      1029      M_A    0.0000
   7211 C         197.0853  185.1349   35.8608 C.3    1030      M_A    0.0000
   7212 C         198.5603  185.1470   36.2427 C.3    1030      M_A    0.0000
   7213 O         199.1403  183.8986   35.8672 O.3    1030      M_A    0.0000
   7214 H         196.4795  185.1016   36.7735 H      1030      M_A    0.0000
   7215 H         196.8546  184.2375   35.2755 H      1030      M_A    0.0000
   7216 H         198.6286  185.2800   37.3315 H      1030      M_A    0.0000
   7217 H         199.0937  185.9723   35.7524 H      1030      M_A    0.0000
   7218 C         200.5062  183.8562   36.2209 C.3    1031      M_A    0.0000
   7219 C         201.3366  184.9008   35.4857 C.3    1031      M_A    0.0000
   7220 O         202.7171  184.5663   35.6214 O.3    1031      M_A    0.0000
   7221 H         200.5867  184.0296   37.3000 H      1031      M_A    0.0000
   7222 H         200.8951  182.8524   36.0153 H      1031      M_A    0.0000
   7223 H         201.1403  185.8784   35.9481 H      1031      M_A    0.0000
   7224 H         201.0648  184.9525   34.4229 H      1031      M_A    0.0000
   7225 C         202.8839  183.4883   36.5174 C.3    1032      M_A    0.0000
   7226 C         204.2031  183.5540   37.2770 C.3    1032      M_A    0.0000
   7227 O         205.1677  182.7597   36.5882 O.3    1032      M_A    0.0000
   7228 H         202.0562  183.5076   37.2352 H      1032      M_A    0.0000
   7229 H         202.8174  182.5483   35.9579 H      1032      M_A    0.0000
   7230 H         204.0354  183.1499   38.2853 H      1032      M_A    0.0000
   7231 H         204.5620  184.5880   37.3668 H      1032      M_A    0.0000
   7232 C         206.4411  183.3669   36.6371 C.3    1033      M_A    0.0000
   7233 C         207.4944  182.5874   35.8596 C.3    1033      M_A    0.0000
   7234 O         208.7872  183.0156   36.2851 O.3    1033      M_A    0.0000
   7235 H         206.3571  184.3746   36.2146 H      1033      M_A    0.0000
   7236 H         206.7453  183.4698   37.6850 H      1033      M_A    0.0000
   7237 H         207.3596  182.8064   34.7910 H      1033      M_A    0.0000
   7238 H         207.3866  181.5055   36.0141 H      1033      M_A    0.0000
   7239 C         209.7581  182.0314   36.0000 C.3    1034      M_A    0.0000
   7240 C         211.0891  182.3011   36.6906 C.3    1034      M_A    0.0000
   7241 O         212.0332  182.7331   35.7118 O.3    1034      M_A    0.0000
   7242 H         209.3717  181.0617   36.3337 H      1034      M_A    0.0000
   7243 H         209.9005  181.9771   34.9147 H      1034      M_A    0.0000
   7244 H         211.4294  181.3632   37.1516 H      1034      M_A    0.0000
   7245 H         210.9857  183.0624   37.4754 H      1034      M_A    0.0000
   7246 C         213.2610  183.0745   36.3188 C.3    1035      M_A    0.0000
   7247 C         213.1487  184.2914   37.2287 C.3    1035      M_A    0.0000
   7248 O         214.3770  185.0157   37.1778 O.3    1035      M_A    0.0000
   7249 H         213.6022  182.2165   36.9090 H      1035      M_A    0.0000
   7250 H         214.0056  183.2567   35.5356 H      1035      M_A    0.0000
   7251 H         212.9655  183.9352   38.2522 H      1035      M_A    0.0000
   7252 H         212.3162  184.9411   36.9272 H      1035      M_A    0.0000
   7253 C         215.2615  184.4338   36.2441 C.3    1036      M_A    0.0000
   7254 C         216.7125  184.8341   36.4804 C.3    1036      M_A    0.0000
   7255 O         216.9936  186.0070   35.7181 O.3    1036      M_A    0.0000
   7256 H         215.1736  183.3442   36.3213 H      1036      M_A    0.0000
   7257 H         214.9506  184.7220   35.2335 H      1036      M_A    0.0000
   7258 H         217.3527  184.0061   36.1447 H      1036      M_A    0.0000
   7259 H         216.9077  185.0213   37.5448 H      1036      M_A    0.0000
   7260 C         218.3417  186.0195   35.2997 C.3    1037      M_A    0.0000
   7261 C         219.2019  186.9756   36.1166 C.3    1037      M_A    0.0000
   7262 O         219.3063  188.2123   35.4127 O.3    1037      M_A    0.0000
   7263 H         218.7413  185.0040   35.3998 H      1037      M_A    0.0000
   7264 H         218.3815  186.2896   34.2384 H      1037      M_A    0.0000
   7265 H         220.1974  186.5241   36.2313 H      1037      M_A    0.0000
   7266 H         218.7749  187.1453   37.1141 H      1037      M_A    0.0000
   7267 C         220.3480  189.0029   35.9440 C.3    1038      M_A    0.0000
   7268 C         220.1776  190.4851   35.6346 C.3    1038      M_A    0.0000
   7269 O         221.3704  190.9632   35.0147 O.3    1038      M_A    0.0000
   7270 H         220.3642  188.8637   37.0308 H      1038      M_A    0.0000
   7271 H         221.3044  188.6427   35.5481 H      1038      M_A    0.0000
   7272 H         220.0102  191.0136   36.5836 H      1038      M_A    0.0000
   7273 H         219.3156  190.6600   34.9770 H      1038      M_A    0.0000
   7274 C         222.4017  190.0041   35.1100 C.3    1039      M_A    0.0000
   7275 C         223.7347  190.5197   34.5820 C.3    1039      M_A    0.0000
   7276 O         224.2186  189.6100   33.5950 O.3    1039      M_A    0.0000
   7277 H         222.5170  189.7280   36.1642 H      1039      M_A    0.0000
   7278 H         222.1014  189.1042   34.5612 H      1039      M_A    0.0000
   7279 H         224.4386  190.5681   35.4247 H      1039      M_A    0.0000
   7280 H         223.6324  191.5242   34.1500 H      1039      M_A    0.0000
   7281 C         225.5826  189.8493   33.3213 C.3    1040      M_A    0.0000
   7282 C         225.8470  191.2751   32.8536 C.3    1040      M_A    0.0000
   7283 O         227.1546  191.3354   32.2858 O.3    1040      M_A    0.0000
   7284 H         226.1544  189.6612   34.2370 H      1040      M_A    0.0000
   7285 H         225.9232  189.1346   32.5635 H      1040      M_A    0.0000
   7286 H         225.7873  191.9368   33.7291 H      1040      M_A    0.0000
   7287 H         225.1010  191.5990   32.1155 H      1040      M_A    0.0000
   7288 C         227.4438  192.6417   31.8357 C.3    1041      M_A    0.0000
   7289 C         228.8874  193.0493   32.1027 C.3    1041      M_A    0.0000
   7290 O         229.0115  194.4556   31.8954 O.3    1041      M_A    0.0000
   7291 H         227.2539  192.6827   30.7572 H      1041      M_A    0.0000
   7292 H         226.7574  193.3446   32.3214 H      1041      M_A    0.0000
   7293 H         229.5303  192.5076   31.3947 H      1041      M_A    0.0000
   7294 H         229.1934  192.7913   33.1253 H      1041      M_A    0.0000
   7295 C         230.3696  194.8279   31.7972 C.3    1042      M_A    0.0000
   7296 C         230.5949  196.3087   32.0760 C.3    1042      M_A    0.0000
   7297 O         231.6283  196.7844   31.2148 O.3    1042      M_A    0.0000
   7298 H         230.9407  194.2363   32.5217 H      1042      M_A    0.0000
   7299 H         230.7362  194.5725   30.7965 H      1042      M_A    0.0000
   7300 H         230.9032  196.4141   33.1257 H      1042      M_A    0.0000
   7301 H         229.6764  196.8898   31.9183 H      1042      M_A    0.0000
   7302 C         231.6446  198.1956   31.1865 C.3    1043      M_A    0.0000
   7303 C         232.8488  198.7548   30.4392 C.3    1043      M_A    0.0000
   7304 O         233.8632  199.0839   31.3872 O.3    1043      M_A    0.0000
   7305 H         230.7272  198.5395   30.6954 H      1043      M_A    0.0000
   7306 H         231.6318  198.5715   32.2159 H      1043      M_A    0.0000
   7307 H         232.5273  199.6597   29.9046 H      1043      M_A    0.0000
   7308 H         233.2369  198.0327   29.7084 H      1043      M_A    0.0000
   7309 C         235.0366  198.3385   31.1421 C.3    1044      M_A    0.0000
   7310 C         236.1483  199.1781   30.5252 C.3    1044      M_A    0.0000
   7311 O         237.1734  198.3048   30.0538 O.3    1044      M_A    0.0000
   7312 H         235.3863  197.9261   32.0953 H      1044      M_A    0.0000
   7313 H         234.7913  197.4963   30.4851 H      1044      M_A    0.0000
   7314 H         236.5487  199.8392   31.3066 H      1044      M_A    0.0000
   7315 H         235.7716  199.7964   29.6994 H      1044      M_A    0.0000
   7316 C         237.0963  197.0509   30.6976 C.3    1045      M_A    0.0000
   7317 C         238.4677  196.4592   30.9986 C.3    1045      M_A    0.0000
   7318 O         238.6257  195.2612   30.2398 O.3    1045      M_A    0.0000
   7319 H         236.5484  197.1811   31.6377 H      1045      M_A    0.0000
   7320 H         236.5190  196.3638   30.0685 H      1045      M_A    0.0000
   7321 H         238.5115  196.2312   32.0729 H      1045      M_A    0.0000
   7322 H         239.2711  197.1673   30.7554 H      1045      M_A    0.0000
   7323 C         239.4187  194.3271   30.9406 C.3    1046      M_A    0.0000
   7324 C         240.9117  194.5603   30.7462 C.3    1046      M_A    0.0000
   7325 O         241.5949  193.3195   30.9183 O.3    1046      M_A    0.0000
   7326 H         239.1799  194.4063   32.0072 H      1046      M_A    0.0000
   7327 H         239.1491  193.3164   30.6135 H      1046      M_A    0.0000
   7328 H         241.2453  195.2807   31.5063 H      1046      M_A    0.0000
   7329 H         241.1261  194.9730   29.7513 H      1046      M_A    0.0000
   7330 C         241.3316  192.7774   32.1948 C.3    1047      M_A    0.0000
   7331 C         242.6018  192.3958   32.9448 C.3    1047      M_A    0.0000
   7332 O         243.0481  191.1256   32.4724 O.3    1047      M_A    0.0000
   7333 H         240.7822  193.5248   32.7782 H      1047      M_A    0.0000
   7334 H         240.6830  191.9012   32.0814 H      1047      M_A    0.0000
   7335 H         242.3592  192.3339   34.0150 H      1047      M_A    0.0000
   7336 H         243.3901  193.1475   32.8050 H      1047      M_A    0.0000
   7337 C         244.4109  191.1789   32.1084 C.3    1048      M_A    0.0000
   7338 C         244.6678  192.1050   30.9261 C.3    1048      M_A    0.0000
   7339 O         245.9751  191.8448   30.4168 O.3    1048      M_A    0.0000
   7340 H         244.9831  191.5347   32.9726 H      1048      M_A    0.0000
   7341 H         244.7559  190.1652   31.8753 H      1048      M_A    0.0000
   7342 H         244.6049  193.1415   31.2859 H      1048      M_A    0.0000
   7343 H         243.9202  191.9605   30.1348 H      1048      M_A    0.0000
   7344 C         246.9004  192.7899   30.9102 C.3    1049      M_A    0.0000
   7345 C         248.1632  192.8745   30.0619 C.3    1049      M_A    0.0000
   7346 O         249.1570  193.5930   30.7912 O.3    1049      M_A    0.0000
   7347 H         246.4131  193.7713   30.9256 H      1049      M_A    0.0000
   7348 H         247.1569  192.5295   31.9434 H      1049      M_A    0.0000
   7349 H         247.9155  193.4120   29.1358 H      1049      M_A    0.0000
   7350 H         248.5372  191.8755   29.8003 H      1049      M_A    0.0000
   7351 C         250.2175  193.9787   29.9430 C.3    1050      M_A    0.0000
   7352 C         251.2982  194.7659   30.6737 C.3    1050      M_A    0.0000
   7353 O         251.4687  196.0231   30.0211 O.3    1050      M_A    0.0000
   7354 H         250.6617  193.0726   29.5156 H      1050      M_A    0.0000
   7355 H         249.8124  194.5727   29.1159 H      1050      M_A    0.0000
   7356 H         252.2318  194.1880   30.6246 H      1050      M_A    0.0000
   7357 H         251.0353  194.9221   31.7285 H      1050      M_A    0.0000
   7358 C         252.7757  196.5171   30.2224 C.3    1051      M_A    0.0000
   7359 C         252.8031  197.7732   31.0842 C.3    1051      M_A    0.0000
   7360 O         254.0867  198.3842   30.9617 O.3    1051      M_A    0.0000
   7361 H         253.3666  195.7344   30.7116 H      1051      M_A    0.0000
   7362 H         253.2331  196.7188   29.2471 H      1051      M_A    0.0000
   7363 H         252.6281  197.4741   32.1272 H      1051      M_A    0.0000
   7364 H         252.0192  198.4815   30.7843 H      1051      M_A    0.0000
   7365 C         254.2968  199.3172   32.0000 C.3    1052      M_A    0.0000
   7366 C         255.5322  200.1798   31.7741 C.3    1052      M_A    0.0000
   7367 O         256.6941  199.3831   31.9999 O.3    1052      M_A    0.0000
   7368 H         253.4148  199.9646   32.0630 H      1052      M_A    0.0000
   7369 H         254.3821  198.7777   32.9501 H      1052      M_A    0.0000
   7370 H         255.5023  201.0114   32.4922 H      1052      M_A    0.0000
   7371 H         255.5512  200.5931   30.7568 H      1052      M_A    0.0000
   7372 C         256.8417  199.0933   33.3735 C.3    1053      M_A    0.0000
   7373 C         258.2363  199.4156   33.8958 C.3    1053      M_A    0.0000
   7374 O         259.0742  198.2782   33.6951 O.3    1053      M_A    0.0000
   7375 H         256.1056  199.6846   33.9298 H      1053      M_A    0.0000
   7376 H         256.6122  198.0346   33.5396 H      1053      M_A    0.0000
   7377 H         258.1547  199.6366   34.9693 H      1053      M_A    0.0000
   7378 H         258.6617  200.2908   33.3870 H      1053      M_A    0.0000
   7379 C         260.4345  198.6551   33.6885 C.3    1054      M_A    0.0000
   7380 C         261.1041  198.4166   32.3408 C.3    1054      M_A    0.0000
   7381 O         262.5176  198.3818   32.5320 O.3    1054      M_A    0.0000
   7382 H         260.4964  199.7210   33.9353 H      1054      M_A    0.0000
   7383 H         260.9602  198.1006   34.4741 H      1054      M_A    0.0000
   7384 H         260.8359  199.2494   31.6757 H      1054      M_A    0.0000
   7385 H         260.7628  197.4775   31.8850 H      1054      M_A    0.0000
   7386 C         263.1916  198.5025   31.2975 C.3    1055      M_A    0.0000
   7387 C         264.5557  197.8238   31.3036 C.3    1055      M_A    0.0000
   7388 O         265.5351  198.7689   31.7317 O.3    1055      M_A    0.0000
   7389 H         262.5681  198.0462   30.5203 H      1055      M_A    0.0000
   7390 H         263.3004  199.5657   31.0551 H      1055      M_A    0.0000
   7391 H         264.7758  197.4936   30.2786 H      1055      M_A    0.0000
   7392 H         264.5637  196.9475   31.9655 H      1055      M_A    0.0000
   7393 C         266.4063  198.1904   32.6798 C.3    1056      M_A    0.0000
   7394 C         267.8373  198.6971   32.5493 C.3    1056      M_A    0.0000
   7395 O         268.7199  197.7232   33.1047 O.3    1056      M_A    0.0000
   7396 H         266.0316  198.4304   33.6813 H      1056      M_A    0.0000
   7397 H         266.3804  197.1006   32.5672 H      1056      M_A    0.0000
   7398 H         267.9172  199.6389   33.1102 H      1056      M_A    0.0000
   7399 H         268.1000  198.8882   31.5002 H      1056      M_A    0.0000
   7400 C         270.0425  198.2148   33.1476 C.3    1057      M_A    0.0000
   7401 C         270.5691  198.6064   31.7726 C.3    1057      M_A    0.0000
   7402 O         271.9558  198.9227   31.8867 O.3    1057      M_A    0.0000
   7403 H         270.0606  199.0939   33.8016 H      1057      M_A    0.0000
   7404 H         270.6899  197.4528   33.5963 H      1057      M_A    0.0000
   7405 H         270.0097  199.4895   31.4330 H      1057      M_A    0.0000
   7406 H         270.4265  197.7971   31.0440 H      1057      M_A    0.0000
   7407 C         272.1460  200.0360   32.7334 C.3    1058      M_A    0.0000
   7408 C         273.4215  200.8060   32.4145 C.3    1058      M_A    0.0000
   7409 O         274.2593  200.8019   33.5694 O.3    1058      M_A    0.0000
   7410 H         271.2857  200.7052   32.6186 H      1058      M_A    0.0000
   7411 H         272.1634  199.6919   33.7738 H      1058      M_A    0.0000
   7412 H         273.1411  201.8374   32.1583 H      1058      M_A    0.0000
   7413 H         273.9537  200.3632   31.5620 H      1058      M_A    0.0000
   7414 C         275.6174  200.9156   33.2016 C.3    1059      M_A    0.0000
   7415 C         276.0159  199.9285   32.1115 C.3    1059      M_A    0.0000
   7416 O         277.4240  199.7099   32.1848 O.3    1059      M_A    0.0000
   7417 H         275.7909  201.9360   32.8413 H      1059      M_A    0.0000
   7418 H         276.2398  200.7665   34.0912 H      1059      M_A    0.0000
   7419 H         275.7550  200.3710   31.1399 H      1059      M_A    0.0000
   7420 H         275.4810  198.9754   32.2198 H      1059      M_A    0.0000
   7421 C         277.8544  198.8710   31.1342 C.3    1060      M_A    0.0000
   7422 C         279.3540  198.6044   31.1715 C.3    1060      M_A    0.0000
   7423 O         279.8302  198.4805   29.8322 O.3    1060      M_A    0.0000
   7424 H         277.3192  197.9181   31.2150 H      1060      M_A    0.0000
   7425 H         277.5764  199.3287   30.1779 H      1060      M_A    0.0000
   7426 H         279.5189  197.6645   31.7167 H      1060      M_A    0.0000
   7427 H         279.8910  199.4108   31.6886 H      1060      M_A    0.0000
   7428 C         281.1640  198.9318   29.7326 C.3    1061      M_A    0.0000
   7429 C         282.1582  197.7919   29.5491 C.3    1061      M_A    0.0000
   7430 O         283.2093  197.9437   30.5020 O.3    1061      M_A    0.0000
   7431 H         281.2337  199.6093   28.8740 H      1061      M_A    0.0000
   7432 H         281.4120  199.5074   30.6316 H      1061      M_A    0.0000
   7433 H         282.5640  197.8553   28.5297 H      1061      M_A    0.0000
   7434 H         281.6739  196.8143   29.6757 H      1061      M_A    0.0000
   7435 C         284.3449  197.1996   30.1156 C.3    1062      M_A    0.0000
   7436 C         285.3898  197.1052   31.2204 C.3    1062      M_A    0.0000
   7437 O         286.3717  198.1186   31.0093 O.3    1062      M_A    0.0000
   7438 H         284.0173  196.1893   29.8455 H      1062      M_A    0.0000
   7439 H         284.7821  197.6578   29.2212 H      1062      M_A    0.0000
   7440 H         285.8572  196.1122   31.1627 H      1062      M_A    0.0000
   7441 H         284.9345  197.2233   32.2129 H      1062      M_A    0.0000
   7442 C         286.1597  199.2087   31.8807 C.3    1063      M_A    0.0000
   7443 C         286.7761  200.5028   31.3643 C.3    1063      M_A    0.0000
   7444 O         286.8158  201.4486   32.4318 O.3    1063      M_A    0.0000
   7445 H         285.0791  199.3488   31.9981 H      1063      M_A    0.0000
   7446 H         286.5721  198.9613   32.8655 H      1063      M_A    0.0000
   7447 H         286.1409  200.8814   30.5512 H      1063      M_A    0.0000
   7448 H         287.7882  200.3353   30.9721 H      1063      M_A    0.0000
   7449 C         286.8094  202.7682   31.9305 C.3    1064      M_A    0.0000
   7450 C         286.2154  203.7681   32.9147 C.3    1064      M_A    0.0000
   7451 O         285.1260  204.4394   32.2834 O.3    1064      M_A    0.0000
   7452 H         287.8433  203.0556   31.7082 H      1064      M_A    0.0000
   7453 H         286.2489  202.7874   30.9889 H      1064      M_A    0.0000
   7454 H         286.9993  204.4917   33.1791 H      1064      M_A    0.0000
   7455 H         285.8708  203.2710   33.8312 H      1064      M_A    0.0000
   7456 C         284.8258  205.6446   32.9544 C.3    1065      M_A    0.0000
   7457 C         284.6185  205.4484   34.4510 C.3    1065      M_A    0.0000
   7458 O         283.5526  206.2943   34.8800 O.3    1065      M_A    0.0000
   7459 H         285.6568  206.3413   32.7964 H      1065      M_A    0.0000
   7460 H         283.9300  206.0876   32.5045 H      1065      M_A    0.0000
   7461 H         285.5496  205.7291   34.9631 H      1065      M_A    0.0000
   7462 H         284.3871  204.4015   34.6890 H      1065      M_A    0.0000
   7463 C         282.3030  205.7423   34.5246 C.3    1066      M_A    0.0000
   7464 C         281.2351  205.9724   35.5866 C.3    1066      M_A    0.0000
   7465 O         280.9341  204.7251   36.2107 O.3    1066      M_A    0.0000
   7466 H         281.9789  206.2040   33.5851 H      1066      M_A    0.0000
   7467 H         282.4282  204.6689   34.3420 H      1066      M_A    0.0000
   7468 H         280.3392  206.3682   35.0880 H      1066      M_A    0.0000
   7469 H         281.5694  206.6988   36.3395 H      1066      M_A    0.0000
   7470 C         280.2945  204.9294   37.4523 C.3    1067      M_A    0.0000
   7471 C         278.9806  204.1668   37.5694 C.3    1067      M_A    0.0000
   7472 O         278.1112  204.8847   38.4437 O.3    1067      M_A    0.0000
   7473 H         280.9729  204.5976   38.2464 H      1067      M_A    0.0000
   7474 H         280.1210  206.0027   37.5899 H      1067      M_A    0.0000
   7475 H         279.1993  203.1749   37.9892 H      1067      M_A    0.0000
   7476 H         278.5044  204.0372   36.5883 H      1067      M_A    0.0000
   7477 C         277.2528  204.0000   39.1315 C.3    1068      M_A    0.0000
   7478 C         275.9339  203.7751   38.4027 C.3    1068      M_A    0.0000
   7479 O         274.8871  203.6854   39.3682 O.3    1068      M_A    0.0000
   7480 H         277.7684  203.0394   39.2434 H      1068      M_A    0.0000
   7481 H         277.0658  204.3961   40.1361 H      1068      M_A    0.0000
   7482 H         276.0106  202.8317   37.8440 H      1068      M_A    0.0000
   7483 H         275.7242  204.5880   37.6948 H      1068      M_A    0.0000
   7484 C         273.8925  202.7782   38.9436 C.3    1069      M_A    0.0000
   7485 C         273.1443  203.2620   37.7077 C.3    1069      M_A    0.0000
   7486 O         271.8752  202.6119   37.6574 O.3    1069      M_A    0.0000
   7487 H         274.3755  201.8208   38.7177 H      1069      M_A    0.0000
   7488 H         273.1901  202.6102   39.7679 H      1069      M_A    0.0000
   7489 H         273.7388  202.9932   36.8232 H      1069      M_A    0.0000
   7490 H         273.0085  204.3517   37.7232 H      1069      M_A    0.0000
   7491 C         271.9938  201.2555   38.0298 C.3    1070      M_A    0.0000
   7492 C         271.9182  200.3097   36.8376 C.3    1070      M_A    0.0000
   7493 O         270.8977  199.3434   37.0842 O.3    1070      M_A    0.0000
   7494 H         272.9581  201.1210   38.5329 H      1070      M_A    0.0000
   7495 H         271.2054  201.0155   38.7521 H      1070      M_A    0.0000
   7496 H         272.8919  199.8098   36.7378 H      1070      M_A    0.0000
   7497 H         271.7044  200.8540   35.9080 H      1070      M_A    0.0000
   7498 C         271.1484  198.1570   36.3615 C.3    1071      M_A    0.0000
   7499 C         269.8794  197.5383   35.7886 C.3    1071      M_A    0.0000
   7500 O         269.7406  196.2163   36.3070 O.3    1071      M_A    0.0000
   7501 H         271.8336  198.3942   35.5398 H      1071      M_A    0.0000
   7502 H         271.6534  197.4406   37.0195 H      1071      M_A    0.0000
   7503 H         269.9818  197.5035   34.6948 H      1071      M_A    0.0000
   7504 H         268.9935  198.1364   36.0409 H      1071      M_A    0.0000
   7505 C         269.3084  196.2496   37.6505 C.3    1072      M_A    0.0000
   7506 C         268.5909  194.9724   38.0690 C.3    1072      M_A    0.0000
   7507 O         267.2036  195.1055   37.7628 O.3    1072      M_A    0.0000
   7508 H         270.1868  196.3927   38.2899 H      1072      M_A    0.0000
   7509 H         268.6505  197.1149   37.7903 H      1072      M_A    0.0000
   7510 H         268.7254  194.8461   39.1525 H      1072      M_A    0.0000
   7511 H         269.0065  194.0939   37.5575 H      1072      M_A    0.0000
   7512 C         266.5532  193.8550   37.8391 C.3    1073      M_A    0.0000
   7513 C         265.6341  193.5970   36.6516 C.3    1073      M_A    0.0000
   7514 O         264.2809  193.7380   37.0813 O.3    1073      M_A    0.0000
   7515 H         267.3188  193.0718   37.8760 H      1073      M_A    0.0000
   7516 H         265.9835  193.8077   38.7741 H      1073      M_A    0.0000
   7517 H         265.8113  192.5705   36.3011 H      1073      M_A    0.0000
   7518 H         265.8413  194.2919   35.8268 H      1073      M_A    0.0000
   7519 C         263.7681  194.9998   36.7105 C.3    1074      M_A    0.0000
   7520 C         262.4081  195.2880   37.3340 C.3    1074      M_A    0.0000
   7521 O         261.5512  195.8325   36.3314 O.3    1074      M_A    0.0000
   7522 H         264.4800  195.7677   37.0336 H      1074      M_A    0.0000
   7523 H         263.6998  195.0480   35.6178 H      1074      M_A    0.0000
   7524 H         262.5522  196.0193   38.1417 H      1074      M_A    0.0000
   7525 H         261.9612  194.3786   37.7575 H      1074      M_A    0.0000
   7526 C         260.4110  196.4243   36.9165 C.3    1075      M_A    0.0000
   7527 C         259.7480  195.5249   37.9523 C.3    1075      M_A    0.0000
   7528 O         258.4021  195.9593   38.1412 O.3    1075      M_A    0.0000
   7529 H         260.7189  197.3589   37.3987 H      1075      M_A    0.0000
   7530 H         259.6969  196.6778   36.1248 H      1075      M_A    0.0000
   7531 H         260.3081  195.6193   38.8932 H      1075      M_A    0.0000
   7532 H         259.7631  194.4729   37.6372 H      1075      M_A    0.0000
   7533 C         257.8720  195.4360   39.3402 C.3    1076      M_A    0.0000
   7534 C         256.3643  195.2258   39.2740 C.3    1076      M_A    0.0000
   7535 O         255.7252  196.2592   40.0219 O.3    1076      M_A    0.0000
   7536 H         258.3590  194.4747   39.5397 H      1076      M_A    0.0000
   7537 H         258.1225  196.1133   40.1645 H      1076      M_A    0.0000
   7538 H         256.1376  194.2464   39.7180 H      1076      M_A    0.0000
   7539 H         256.0043  195.2345   38.2366 H      1076      M_A    0.0000
   7540 C         254.3411  196.2921   39.7463 C.3    1077      M_A    0.0000
   7541 C         253.5913  197.2906   40.6194 C.3    1077      M_A    0.0000
   7542 O         252.1897  197.0884   40.4454 O.3    1077      M_A    0.0000
   7543 H         254.2074  196.5658   38.6936 H      1077      M_A    0.0000
   7544 H         253.9279  195.2863   39.8836 H      1077      M_A    0.0000
   7545 H         253.8677  198.3029   40.2925 H      1077      M_A    0.0000
   7546 H         253.8594  197.1766   41.6782 H      1077      M_A    0.0000
   7547 C         251.9062  196.6615   39.1301 C.3    1078      M_A    0.0000
   7548 C         250.5285  197.1037   38.6526 C.3    1078      M_A    0.0000
   7549 O         249.5446  196.2615   39.2513 O.3    1078      M_A    0.0000
   7550 H         252.6678  197.0795   38.4621 H      1078      M_A    0.0000
   7551 H         251.9881  195.5695   39.0859 H      1078      M_A    0.0000
   7552 H         250.4975  196.9980   37.5590 H      1078      M_A    0.0000
   7553 H         250.3332  198.1530   38.9110 H      1078      M_A    0.0000
   7554 C         248.2559  196.5799   38.7714 C.3    1079      M_A    0.0000
   7555 C         247.3514  197.1563   39.8536 C.3    1079      M_A    0.0000
   7556 O         246.1605  196.3732   39.9196 O.3    1079      M_A    0.0000
   7557 H         248.3619  197.3143   37.9650 H      1079      M_A    0.0000
   7558 H         247.8038  195.6781   38.3430 H      1079      M_A    0.0000
   7559 H         247.1051  198.1908   39.5757 H      1079      M_A    0.0000
   7560 H         247.8516  197.1635   40.8313 H      1079      M_A    0.0000
   7561 C         245.4147  196.6948   41.0741 C.3    1080      M_A    0.0000
   7562 C         244.4784  195.5712   41.5012 C.3    1080      M_A    0.0000
   7563 O         243.1412  195.9366   41.1634 O.3    1080      M_A    0.0000
   7564 H         246.1170  196.9046   41.8888 H      1080      M_A    0.0000
   7565 H         244.8429  197.6102   40.8837 H      1080      M_A    0.0000
   7566 H         244.5700  195.4473   42.5894 H      1080      M_A    0.0000
   7567 H         244.7436  194.6229   41.0148 H      1080      M_A    0.0000
   7568 C         242.2322  194.9363   41.5705 C.3    1081      M_A    0.0000
   7569 C         242.4037  193.6356   40.7959 C.3    1081      M_A    0.0000
   7570 O         241.3030  192.7776   41.0929 O.3    1081      M_A    0.0000
   7571 H         242.3916  194.7415   42.6371 H      1081      M_A    0.0000
   7572 H         241.2107  195.3148   41.4505 H      1081      M_A    0.0000
   7573 H         243.3431  193.1671   41.1217 H      1081      M_A    0.0000
   7574 H         242.4574  193.8181   39.7143 H      1081      M_A    0.0000
   7575 C         240.7535  193.0892   42.3553 C.3    1082      M_A    0.0000
   7576 C         240.2636  191.8559   43.1039 C.3    1082      M_A    0.0000
   7577 O         238.8704  191.6876   42.8461 O.3    1082      M_A    0.0000
   7578 H         241.5261  193.5869   42.9523 H      1082      M_A    0.0000
   7579 H         239.9299  193.7992   42.2185 H      1082      M_A    0.0000
   7580 H         240.4291  192.0217   44.1777 H      1082      M_A    0.0000
   7581 H         240.8143  190.9566   42.7971 H      1082      M_A    0.0000
   7582 C         238.3955  190.4929   43.4290 C.3    1083      M_A    0.0000
   7583 C         237.6384  189.6163   42.4391 C.3    1083      M_A    0.0000
   7584 O         236.7091  188.8089   43.1605 O.3    1083      M_A    0.0000
   7585 H         239.2553  189.9348   43.8165 H      1083      M_A    0.0000
   7586 H         237.7514  190.7444   44.2793 H      1083      M_A    0.0000
   7587 H         238.3686  188.9773   41.9229 H      1083      M_A    0.0000
   7588 H         237.1093  190.2221   41.6914 H      1083      M_A    0.0000
   7589 C         235.4603  189.4585   43.2664 C.3    1084      M_A    0.0000
   7590 C         234.6845  189.0419   44.5098 C.3    1084      M_A    0.0000
   7591 O         233.6174  188.1804   44.1161 O.3    1084      M_A    0.0000
   7592 H         235.6377  190.5394   43.3005 H      1084      M_A    0.0000
   7593 H         234.8723  189.2461   42.3663 H      1084      M_A    0.0000
   7594 H         234.2799  189.9501   44.9784 H      1084      M_A    0.0000
   7595 H         235.3332  188.5308   45.2337 H      1084      M_A    0.0000
   7596 C         233.5264  187.0700   44.9829 C.3    1085      M_A    0.0000
   7597 C         232.4727  187.2559   46.0676 C.3    1085      M_A    0.0000
   7598 O         233.0629  186.9644   47.3336 O.3    1085      M_A    0.0000
   7599 H         233.2724  186.1877   44.3846 H      1085      M_A    0.0000
   7600 H         234.5079  186.8928   45.4371 H      1085      M_A    0.0000
   7601 H         231.6504  186.5549   45.8668 H      1085      M_A    0.0000
   7602 H         232.0725  188.2786   46.0657 H      1085      M_A    0.0000
   7603 C         233.9042  188.0197   47.7472 C.3    1086      M_A    0.0000
   7604 C         234.4711  187.8061   49.1452 C.3    1086      M_A    0.0000
   7605 O         233.7982  188.6800   50.0504 O.3    1086      M_A    0.0000
   7606 H         234.7320  188.0984   47.0335 H      1086      M_A    0.0000
   7607 H         233.3408  188.9589   47.7083 H      1086      M_A    0.0000
   7608 H         235.5431  188.0472   49.1181 H      1086      M_A    0.0000
   7609 H         234.3524  186.7638   49.4702 H      1086      M_A    0.0000
   7610 C         234.5004  188.7712   51.2715 C.3    1087      M_A    0.0000
   7611 C         233.6073  188.5313   52.4825 C.3    1087      M_A    0.0000
   7612 O         234.1763  189.1961   53.6095 O.3    1087      M_A    0.0000
   7613 H         235.3011  188.0231   51.2635 H      1087      M_A    0.0000
   7614 H         234.9691  189.7596   51.3385 H      1087      M_A    0.0000
   7615 H         233.5673  187.4485   52.6665 H      1087      M_A    0.0000
   7616 H         232.5869  188.8968   52.3058 H      1087      M_A    0.0000
   7617 C         235.5833  189.0825   53.5983 C.3    1088      M_A    0.0000
   7618 C         236.1743  188.9584   54.9972 C.3    1088      M_A    0.0000
   7619 O         236.4412  190.2672   55.4989 O.3    1088      M_A    0.0000
   7620 H         235.8511  188.1933   53.0164 H      1088      M_A    0.0000
   7621 H         236.0058  189.9547   53.0865 H      1088      M_A    0.0000
   7622 H         237.1104  188.3876   54.9215 H      1088      M_A    0.0000
   7623 H         235.4916  188.4278   55.6743 H      1088      M_A    0.0000
   7624 C         235.2443  190.9063   55.8884 C.3    1089      M_A    0.0000
   7625 C         235.2255  191.2677   57.3684 C.3    1089      M_A    0.0000
   7626 O         234.3996  190.3304   58.0578 O.3    1089      M_A    0.0000
   7627 H         235.1353  191.8212   55.2951 H      1089      M_A    0.0000
   7628 H         234.3984  190.2519   55.6492 H      1089      M_A    0.0000
   7629 H         234.8072  192.2793   57.4663 H      1089      M_A    0.0000
   7630 H         236.2377  191.2620   57.7946 H      1089      M_A    0.0000
   7631 C         235.0865  189.1140   58.2604 C.3    1090      M_A    0.0000
   7632 C         234.4947  188.2866   59.3948 C.3    1090      M_A    0.0000
   7633 O         235.5273  187.4801   59.9598 O.3    1090      M_A    0.0000
   7634 H         235.0385  188.5342   57.3317 H      1090      M_A    0.0000
   7635 H         236.1414  189.3314   58.4628 H      1090      M_A    0.0000
   7636 H         233.7068  187.6464   58.9737 H      1090      M_A    0.0000
   7637 H         234.0520  188.9276   60.1688 H      1090      M_A    0.0000
   7638 C         235.0289  186.7102   61.0328 C.3    1091      M_A    0.0000
   7639 C         236.1188  185.9174   61.7435 C.3    1091      M_A    0.0000
   7640 O         235.8071  184.5280   61.6525 O.3    1091      M_A    0.0000
   7641 H         234.5542  187.3888   61.7505 H      1091      M_A    0.0000
   7642 H         234.2555  186.0323   60.6541 H      1091      M_A    0.0000
   7643 H         236.1347  186.2300   62.7971 H      1091      M_A    0.0000
   7644 H         237.1061  186.1111   61.3034 H      1091      M_A    0.0000
   7645 C         236.9858  183.7513   61.6426 C.3    1092      M_A    0.0000
   7646 C         236.9477  182.6121   62.6535 C.3    1092      M_A    0.0000
   7647 O         238.2627  182.4159   63.1715 O.3    1092      M_A    0.0000
   7648 H         237.1130  183.3338   60.6374 H      1092      M_A    0.0000
   7649 H         237.8428  184.4045   61.8425 H      1092      M_A    0.0000
   7650 H         236.6110  181.7053   62.1317 H      1092      M_A    0.0000
   7651 H         236.2489  182.8274   63.4729 H      1092      M_A    0.0000
   7652 C         238.3235  181.2376   63.9464 C.3    1093      M_A    0.0000
   7653 C         237.3011  181.2233   65.0760 C.3    1093      M_A    0.0000
   7654 O         237.9709  180.9068   66.2954 O.3    1093      M_A    0.0000
   7655 H         238.1391  180.3828   63.2859 H      1093      M_A    0.0000
   7656 H         239.3358  181.1318   64.3527 H      1093      M_A    0.0000
   7657 H         236.5528  180.4514   64.8477 H      1093      M_A    0.0000
   7658 H         236.7918  182.1920   65.1669 H      1093      M_A    0.0000
   7659 C         237.1464  180.1201   67.1284 C.3    1094      M_A    0.0000
   7660 C         236.1693  180.9553   67.9463 C.3    1094      M_A    0.0000
   7661 O         236.2770  180.5738   69.3169 O.3    1094      M_A    0.0000
   7662 H         236.5817  179.4263   66.4954 H      1094      M_A    0.0000
   7663 H         237.7805  179.5228   67.7934 H      1094      M_A    0.0000
   7664 H         235.1544  180.7489   67.5782 H      1094      M_A    0.0000
   7665 H         236.3721  182.0291   67.8375 H      1094      M_A    0.0000
   7666 C         235.1790  181.0604   70.0586 C.3    1095      M_A    0.0000
   7667 C         235.6008  181.9740   71.2027 C.3    1095      M_A    0.0000
   7668 O         234.5590  181.9975   72.1773 O.3    1095      M_A    0.0000
   7669 H         234.5253  181.6176   69.3780 H      1095      M_A    0.0000
   7670 H         234.6076  180.2095   70.4465 H      1095      M_A    0.0000
   7671 H         235.7546  182.9824   70.7937 H      1095      M_A    0.0000
   7672 H         236.5382  181.6331   71.6621 H      1095      M_A    0.0000
   7673 C         234.3594  180.7122   72.7260 C.3    1096      M_A    0.0000
   7674 C         233.2158  180.6736   73.7320 C.3    1096      M_A    0.0000
   7675 O         233.7573  180.4424   75.0317 O.3    1096      M_A    0.0000
   7676 H         234.1384  180.0197   71.9060 H      1096      M_A    0.0000
   7677 H         235.2901  180.3803   73.2001 H      1096      M_A    0.0000
   7678 H         232.5451  179.8488   73.4530 H      1096      M_A    0.0000
   7679 H         232.6440  181.6111   73.7240 H      1096      M_A    0.0000
   7680 C         232.7566  179.9838   75.9153 C.3    1097      M_A    0.0000
   7681 C         231.7448  181.0662   76.2704 C.3    1097      M_A    0.0000
   7682 O         232.1178  181.6498   77.5178 O.3    1097      M_A    0.0000
   7683 H         232.2336  179.1479   75.4371 H      1097      M_A    0.0000
   7684 H         233.2341  179.6012   76.8245 H      1097      M_A    0.0000
   7685 H         230.7569  180.5927   76.3583 H      1097      M_A    0.0000
   7686 H         231.6969  181.8399   75.4924 H      1097      M_A    0.0000
   7687 C         231.0013  182.2440   78.1448 C.3    1098      M_A    0.0000
   7688 C         230.4980  183.4766   77.4040 C.3    1098      M_A    0.0000
   7689 O         230.9733  184.6412   78.0776 O.3    1098      M_A    0.0000
   7690 H         230.1975  181.5006   78.1903 H      1098      M_A    0.0000
   7691 H         231.2705  182.5065   79.1742 H      1098      M_A    0.0000
   7692 H         229.3992  183.4571   77.4184 H      1098      M_A    0.0000
   7693 H         230.8368  183.4816   76.3593 H      1098      M_A    0.0000
   7694 C         230.9560  185.7588   77.2154 C.3    1099      M_A    0.0000
   7695 C         232.2133  186.6112   77.3326 C.3    1099      M_A    0.0000
   7696 O         231.8571  187.8790   77.8818 O.3    1099      M_A    0.0000
   7697 H         230.8641  185.3960   76.1854 H      1099      M_A    0.0000
   7698 H         230.0687  186.3632   77.4357 H      1099      M_A    0.0000
   7699 H         232.6301  186.7430   76.3242 H      1099      M_A    0.0000
   7700 H         232.9684  186.1258   77.9654 H      1099      M_A    0.0000
   7701 C         233.0091  188.5969   78.2694 C.3    1100      M_A    0.0000
   7702 C         232.7142  189.6576   79.3225 C.3    1100      M_A    0.0000
   7703 O         233.6907  190.6924   79.2157 O.3    1100      M_A    0.0000
   7704 H         233.7375  187.8845   78.6729 H      1100      M_A    0.0000
   7705 H         233.4538  189.0604   77.3814 H      1100      M_A    0.0000
   7706 H         232.7782  189.1821   80.3114 H      1100      M_A    0.0000
   7707 H         231.7068  190.0766   79.1974 H      1100      M_A    0.0000
   7708 C         233.7551  191.4434   80.4092 C.3    1101      M_A    0.0000
   7709 C         232.9202  192.7165   80.3485 C.3    1101      M_A    0.0000
   7710 O         233.6833  193.7906   80.8960 O.3    1101      M_A    0.0000
   7711 H         233.3908  190.8152   81.2299 H      1101      M_A    0.0000
   7712 H         234.8026  191.6890   80.6179 H      1101      M_A    0.0000
   7713 H         232.0130  192.5572   80.9480 H      1101      M_A    0.0000
   7714 H         232.6245  192.9523   79.3175 H      1101      M_A    0.0000
   7715 C         232.8374  194.8353   81.3268 C.3    1102      M_A    0.0000
   7716 C         233.3175  196.2071   80.8695 C.3    1102      M_A    0.0000
   7717 O         233.7021  196.9632   82.0167 O.3    1102      M_A    0.0000
   7718 H         231.8350  194.6538   80.9227 H      1102      M_A    0.0000
   7719 H         232.7657  194.8061   82.4200 H      1102      M_A    0.0000
   7720 H         232.4839  196.7049   80.3544 H      1102      M_A    0.0000
   7721 H         234.1626  196.1236   80.1732 H      1102      M_A    0.0000
   7722 C         234.9915  197.5112   81.8443 C.3    1103      M_A    0.0000
   7723 C         235.3878  198.4495   82.9774 C.3    1103      M_A    0.0000
   7724 O         236.5905  199.1250   82.6127 O.3    1103      M_A    0.0000
   7725 H         235.7110  196.6861   81.7945 H      1103      M_A    0.0000
   7726 H         235.0265  198.0416   80.8859 H      1103      M_A    0.0000
   7727 H         235.5568  197.8428   83.8781 H      1103      M_A    0.0000
   7728 H         234.5951  199.1798   83.1880 H      1103      M_A    0.0000
   7729 C         237.4034  199.3444   83.7457 C.3    1104      M_A    0.0000
   7730 C         238.7258  200.0171   83.3991 C.3    1104      M_A    0.0000
   7731 O         239.7154  199.5895   84.3339 O.3    1104      M_A    0.0000
   7732 H         236.8508  199.9808   84.4462 H      1104      M_A    0.0000
   7733 H         237.5871  198.3847   84.2420 H      1104      M_A    0.0000
   7734 H         238.5842  201.1044   83.4738 H      1104      M_A    0.0000
   7735 H         239.0434  199.7724   82.3767 H      1104      M_A    0.0000
   7736 C         241.0035  199.9857   83.9138 C.3    1105      M_A    0.0000
   7737 C         242.0069  200.0327   85.0593 C.3    1105      M_A    0.0000
   7738 O         242.4220  201.3847   85.2488 O.3    1105      M_A    0.0000
   7739 H         241.3535  199.2709   83.1604 H      1105      M_A    0.0000
   7740 H         240.9335  200.9681   83.4332 H      1105      M_A    0.0000
   7741 H         242.8696  199.4109   84.7816 H      1105      M_A    0.0000
   7742 H         241.5728  199.6388   85.9880 H      1105      M_A    0.0000
   7743 C         242.2999  201.7592   86.6043 C.3    1106      M_A    0.0000
   7744 C         242.0917  203.2579   86.7837 C.3    1106      M_A    0.0000
   7745 O         243.1514  203.7740   87.5877 O.3    1106      M_A    0.0000
   7746 H         241.4438  201.2252   87.0319 H      1106      M_A    0.0000
   7747 H         243.1971  201.4359   87.1441 H      1106      M_A    0.0000
   7748 H         241.1283  203.4092   87.2906 H      1106      M_A    0.0000
   7749 H         242.0663  203.7769   85.8162 H      1106      M_A    0.0000
   7750 C         243.2407  205.1766   87.4558 C.3    1107      M_A    0.0000
   7751 C         244.6801  205.6763   87.4524 C.3    1107      M_A    0.0000
   7752 O         244.9179  206.3946   88.6620 O.3    1107      M_A    0.0000
   7753 H         242.7598  205.4639   86.5140 H      1107      M_A    0.0000
   7754 H         242.6805  205.6463   88.2723 H      1107      M_A    0.0000
   7755 H         244.8062  206.3440   86.5886 H      1107      M_A    0.0000
   7756 H         245.3920  204.8449   87.3623 H      1107      M_A    0.0000
   7757 C         246.1669  206.0400   89.2160 C.3    1108      M_A    0.0000
   7758 C         247.2718  207.0244   88.8531 C.3    1108      M_A    0.0000
   7759 O         248.5204  206.3340   88.8609 O.3    1108      M_A    0.0000
   7760 H         246.0615  206.0062   90.3063 H      1108      M_A    0.0000
   7761 H         246.4328  205.0326   88.8761 H      1108      M_A    0.0000
   7762 H         247.2792  207.8215   89.6098 H      1108      M_A    0.0000
   7763 H         247.0976  207.4758   87.8672 H      1108      M_A    0.0000
   7764 C         248.5277  205.3261   89.8492 C.3    1109      M_A    0.0000
   7765 C         249.7947  205.3416   90.6954 C.3    1109      M_A    0.0000
   7766 O         250.8021  204.5860   90.0245 O.3    1109      M_A    0.0000
   7767 H         247.6600  205.4787   90.5010 H      1109      M_A    0.0000
   7768 H         248.4110  204.3511   89.3627 H      1109      M_A    0.0000
   7769 H         249.5619  204.8789   91.6648 H      1109      M_A    0.0000
   7770 H         250.1469  206.3671   90.8697 H      1109      M_A    0.0000
   7771 C         251.9927  205.3352   89.9067 C.3    1110      M_A    0.0000
   7772 C         251.8264  206.5694   89.0289 C.3    1110      M_A    0.0000
   7773 O         253.1018  207.1866   88.8608 O.3    1110      M_A    0.0000
   7774 H         252.3014  205.6487   90.9104 H      1110      M_A    0.0000
   7775 H         252.7803  204.6888   89.5031 H      1110      M_A    0.0000
   7776 H         251.1400  207.2596   89.5392 H      1110      M_A    0.0000
   7777 H         251.4020  206.3098   88.0498 H      1110      M_A    0.0000
   7778 C         253.8646  207.0870   90.0444 C.3    1111      M_A    0.0000
   7779 C         255.2801  207.6259   89.8787 C.3    1111      M_A    0.0000
   7780 O         255.9658  207.5014   91.1237 O.3    1111      M_A    0.0000
   7781 H         253.3547  207.6559   90.8301 H      1111      M_A    0.0000
   7782 H         253.8951  206.0378   90.3598 H      1111      M_A    0.0000
   7783 H         255.2095  208.6851   89.5936 H      1111      M_A    0.0000
   7784 H         255.8248  207.0850   89.0934 H      1111      M_A    0.0000
   7785 C         255.4590  208.4211   92.0671 C.3    1112      M_A    0.0000
   7786 C         255.7941  209.8659   91.7182 C.3    1112      M_A    0.0000
   7787 O         257.0310  210.2117   92.3397 O.3    1112      M_A    0.0000
   7788 H         254.3700  208.3060   92.1076 H      1112      M_A    0.0000
   7789 H         255.8572  208.1701   93.0568 H      1112      M_A    0.0000
   7790 H         254.9882  210.5050   92.1055 H      1112      M_A    0.0000
   7791 H         255.8660  210.0088   90.6317 H      1112      M_A    0.0000
   7792 C         257.2186  211.6108   92.3344 C.3    1113      M_A    0.0000
   7793 C         258.5451  212.0237   91.7088 C.3    1113      M_A    0.0000
   7794 O         259.5279  212.1158   92.7392 O.3    1113      M_A    0.0000
   7795 H         256.3985  212.0647   91.7667 H      1113      M_A    0.0000
   7796 H         257.1556  211.9812   93.3639 H      1113      M_A    0.0000
   7797 H         258.4064  213.0051   91.2340 H      1113      M_A    0.0000
   7798 H         258.8680  211.3046   90.9442 H      1113      M_A    0.0000
   7799 C         259.9405  210.8306   93.1521 C.3    1114      M_A    0.0000
   7800 C         261.3286  210.8324   93.7803 C.3    1114      M_A    0.0000
   7801 O         262.2949  210.6056   92.7553 O.3    1114      M_A    0.0000
   7802 H         259.2164  210.4569   93.8850 H      1114      M_A    0.0000
   7803 H         259.9182  210.1561   92.2886 H      1114      M_A    0.0000
   7804 H         261.3684  210.0201   94.5196 H      1114      M_A    0.0000
   7805 H         261.5362  211.7830   94.2895 H      1114      M_A    0.0000
   7806 C         263.4828  210.0704   93.2985 C.3    1115      M_A    0.0000
   7807 C         264.1409  211.0038   94.3070 C.3    1115      M_A    0.0000
   7808 O         265.1603  211.7493   93.6431 O.3    1115      M_A    0.0000
   7809 H         263.2375  209.1240   93.7936 H      1115      M_A    0.0000
   7810 H         264.1781  209.8479   92.4811 H      1115      M_A    0.0000
   7811 H         264.5841  210.3876   95.1019 H      1115      M_A    0.0000
   7812 H         263.4082  211.6867   94.7576 H      1115      M_A    0.0000
   7813 C         266.0321  212.3463   94.5791 C.3    1116      M_A    0.0000
   7814 C         265.9630  213.8683   94.5594 C.3    1116      M_A    0.0000
   7815 O         267.2702  214.3887   94.7967 O.3    1116      M_A    0.0000
   7816 H         265.7596  211.9885   95.5785 H      1116      M_A    0.0000
   7817 H         267.0556  212.0126   94.3739 H      1116      M_A    0.0000
   7818 H         265.2809  214.1882   95.3597 H      1116      M_A    0.0000
   7819 H         265.5789  214.2390   93.5997 H      1116      M_A    0.0000
   7820 C         267.3203  215.7676   94.4988 C.3    1117      M_A    0.0000
   7821 C         267.1950  216.0518   93.0071 C.3    1117      M_A    0.0000
   7822 O         266.9699  217.4489   92.8248 O.3    1117      M_A    0.0000
   7823 H         266.4983  216.2629   95.0278 H      1117      M_A    0.0000
   7824 H         268.2600  216.1800   94.8835 H      1117      M_A    0.0000
   7825 H         266.3383  215.4805   92.6228 H      1117      M_A    0.0000
   7826 H         268.0976  215.7420   92.4636 H      1117      M_A    0.0000
   7827 C         265.7100  217.6784   92.2309 C.3    1118      M_A    0.0000
   7828 C         265.3639  216.6432   91.1678 C.3    1118      M_A    0.0000
   7829 O         263.9998  216.8168   90.7871 O.3    1118      M_A    0.0000
   7830 H         264.9490  217.6503   93.0190 H      1118      M_A    0.0000
   7831 H         265.7009  218.6839   91.7951 H      1118      M_A    0.0000
   7832 H         265.5070  215.6452   91.6055 H      1118      M_A    0.0000
   7833 H         266.0151  216.7393   90.2887 H      1118      M_A    0.0000
   7834 C         263.5346  215.6932   90.0703 C.3    1119      M_A    0.0000
   7835 C         262.3655  214.9996   90.7585 C.3    1119      M_A    0.0000
   7836 O         262.3138  213.6438   90.3171 O.3    1119      M_A    0.0000
   7837 H         263.2173  216.0278   89.0761 H      1119      M_A    0.0000
   7838 H         264.3641  214.9897   89.9356 H      1119      M_A    0.0000
   7839 H         261.4427  215.5230   90.4713 H      1119      M_A    0.0000
   7840 H         262.4659  215.0359   91.8515 H      1119      M_A    0.0000
   7841 C         261.1402  213.4064   89.5694 C.3    1120      M_A    0.0000
   7842 C         260.7927  211.9260   89.4747 C.3    1120      M_A    0.0000
   7843 O         260.7565  211.5516   88.0984 O.3    1120      M_A    0.0000
   7844 H         260.3125  213.9383   90.0521 H      1120      M_A    0.0000
   7845 H         261.2671  213.8289   88.5661 H      1120      M_A    0.0000
   7846 H         259.8030  211.7792   89.9296 H      1120      M_A    0.0000
   7847 H         261.5235  211.3082   90.0136 H      1120      M_A    0.0000
   7848 C         260.0000  210.3730   87.9212 C.3    1121      M_A    0.0000
   7849 C         258.7841  210.5838   87.0276 C.3    1121      M_A    0.0000
   7850 O         257.9215  209.4543   87.1547 O.3    1121      M_A    0.0000
   7851 H         260.6486  209.6137   87.4700 H      1121      M_A    0.0000
   7852 H         259.6862  210.0016   88.9034 H      1121      M_A    0.0000
   7853 H         259.1357  210.6722   85.9901 H      1121      M_A    0.0000
   7854 H         258.2442  211.5016   87.2963 H      1121      M_A    0.0000
   7855 C         257.2263  209.4926   88.3827 C.3    1122      M_A    0.0000
   7856 C         258.1480  209.3335   89.5853 C.3    1122      M_A    0.0000
   7857 O         258.6003  207.9813   89.6394 O.3    1122      M_A    0.0000
   7858 H         256.7083  210.4557   88.4536 H      1122      M_A    0.0000
   7859 H         256.4648  208.7044   88.3842 H      1122      M_A    0.0000
   7860 H         257.5713  209.5725   90.4899 H      1122      M_A    0.0000
   7861 H         259.0068  210.0153   89.5244 H      1122      M_A    0.0000
   7862 C         258.4265  207.3463   88.3907 C.3    1123      M_A    0.0000
   7863 C         257.4327  206.1929   88.4509 C.3    1123      M_A    0.0000
   7864 O         257.8417  205.1878   87.5246 O.3    1123      M_A    0.0000
   7865 H         258.0660  208.0925   87.6737 H      1123      M_A    0.0000
   7866 H         259.3996  206.9874   88.0366 H      1123      M_A    0.0000
   7867 H         256.4435  206.5814   88.1704 H      1123      M_A    0.0000
   7868 H         257.3715  205.7699   89.4625 H      1123      M_A    0.0000
   7869 C         256.9326  204.1078   87.5259 C.3    1124      M_A    0.0000
   7870 C         256.2759  203.8905   86.1684 C.3    1124      M_A    0.0000
   7871 O         254.8898  204.2120   86.2739 O.3    1124      M_A    0.0000
   7872 H         257.4782  203.2006   87.8089 H      1124      M_A    0.0000
   7873 H         256.1681  204.2884   88.2901 H      1124      M_A    0.0000
   7874 H         256.3959  202.8320   85.8980 H      1124      M_A    0.0000
   7875 H         256.7474  204.5082   85.3923 H      1124      M_A    0.0000
   7876 C         254.2909  204.2653   84.9968 C.3    1125      M_A    0.0000
   7877 C         252.9054  204.8986   85.0231 C.3    1125      M_A    0.0000
   7878 O         251.9524  203.9329   84.5814 O.3    1125      M_A    0.0000
   7879 H         254.9403  204.8524   84.3376 H      1125      M_A    0.0000
   7880 H         254.2336  203.2497   84.5889 H      1125      M_A    0.0000
   7881 H         252.9117  205.7593   84.3396 H      1125      M_A    0.0000
   7882 H         252.6453  205.2504   86.0305 H      1125      M_A    0.0000
   7883 C         250.6830  204.1912   85.1424 C.3    1126      M_A    0.0000
   7884 C         249.7551  202.9845   85.0775 C.3    1126      M_A    0.0000
   7885 O         248.7657  203.2214   84.0772 O.3    1126      M_A    0.0000
   7886 H         250.8233  204.4790   86.1904 H      1126      M_A    0.0000
   7887 H         250.2312  205.0428   84.6211 H      1126      M_A    0.0000
   7888 H         249.2756  202.8710   86.0600 H      1126      M_A    0.0000
   7889 H         250.3099  202.0650   84.8478 H      1126      M_A    0.0000
   7890 C         248.1131  202.0199   83.7259 C.3    1127      M_A    0.0000
   7891 C         247.4081  202.1062   82.3779 C.3    1127      M_A    0.0000
   7892 O         246.4372  201.0635   82.3018 O.3    1127      M_A    0.0000
   7893 H         248.8625  201.2212   83.6874 H      1127      M_A    0.0000
   7894 H         247.3938  201.7637   84.5120 H      1127      M_A    0.0000
   7895 H         248.1630  201.9741   81.5901 H      1127      M_A    0.0000
   7896 H         246.9234  203.0823   82.2416 H      1127      M_A    0.0000
   7897 C         246.9746  199.8455   82.7714 C.3    1128      M_A    0.0000
   7898 C         246.4154  198.6339   82.0360 C.3    1128      M_A    0.0000
   7899 O         245.2931  198.1356   82.7624 O.3    1128      M_A    0.0000
   7900 H         248.0617  199.8757   82.6367 H      1128      M_A    0.0000
   7901 H         246.7746  199.7600   83.8455 H      1128      M_A    0.0000
   7902 H         247.2035  197.8691   81.9922 H      1128      M_A    0.0000
   7903 H         246.1162  198.8909   81.0110 H      1128      M_A    0.0000
   7904 C         244.0875  198.6314   82.2208 C.3    1129      M_A    0.0000
   7905 C         243.2139  197.5331   81.6275 C.3    1129      M_A    0.0000
   7906 O         242.5797  198.0372   80.4530 O.3    1129      M_A    0.0000
   7907 H         243.5340  199.1361   83.0207 H      1129      M_A    0.0000
   7908 H         244.3234  199.3800   81.4559 H      1129      M_A    0.0000
   7909 H         242.4561  197.2601   82.3752 H      1129      M_A    0.0000
   7910 H         243.8048  196.6404   81.3824 H      1129      M_A    0.0000
   7911 C         241.3182  197.4315   80.2676 C.3    1130      M_A    0.0000
   7912 C         241.3246  196.3876   79.1578 C.3    1130      M_A    0.0000
   7913 O         239.9752  196.0835   78.8079 O.3    1130      M_A    0.0000
   7914 H         241.0264  196.9517   81.2086 H      1130      M_A    0.0000
   7915 H         240.5792  198.2105   80.0482 H      1130      M_A    0.0000
   7916 H         241.8249  195.4870   79.5409 H      1130      M_A    0.0000
   7917 H         241.8708  196.7456   78.2748 H      1130      M_A    0.0000
   7918 C         239.9128  194.8999   78.0411 C.3    1131      M_A    0.0000
   7919 C         238.6487  194.8136   77.1950 C.3    1131      M_A    0.0000
   7920 O         237.8609  193.7184   77.6597 O.3    1131      M_A    0.0000
   7921 H         240.7876  194.8719   77.3816 H      1131      M_A    0.0000
   7922 H         239.9758  194.0372   78.7141 H      1131      M_A    0.0000
   7923 H         238.9488  194.6436   76.1514 H      1131      M_A    0.0000
   7924 H         238.0676  195.7440   77.2476 H      1131      M_A    0.0000
   7925 C         237.0018  193.2534   76.6407 C.3    1132      M_A    0.0000
   7926 C         235.7603  194.1213   76.4770 C.3    1132      M_A    0.0000
   7927 O         234.7218  193.3303   75.9011 O.3    1132      M_A    0.0000
   7928 H         237.5603  193.2461   75.6979 H      1132      M_A    0.0000
   7929 H         236.7128  192.2201   76.8643 H      1132      M_A    0.0000
   7930 H         236.0136  194.9540   75.8059 H      1132      M_A    0.0000
   7931 H         235.4298  194.5327   77.4401 H      1132      M_A    0.0000
   7932 C         234.4888  192.1725   76.6743 C.3    1133      M_A    0.0000
   7933 C         233.9283  191.0191   75.8516 C.3    1133      M_A    0.0000
   7934 O         232.5687  191.3063   75.5278 O.3    1133      M_A    0.0000
   7935 H         235.4392  191.8631   77.1236 H      1133      M_A    0.0000
   7936 H         233.8010  192.4230   77.4900 H      1133      M_A    0.0000
   7937 H         233.9838  190.1071   76.4624 H      1133      M_A    0.0000
   7938 H         234.5092  190.8638   74.9326 H      1133      M_A    0.0000
   7939 C         231.8578  190.1171   75.2576 C.3    1134      M_A    0.0000
   7940 C         231.2106  190.1195   73.8783 C.3    1134      M_A    0.0000
   7941 O         230.0315  189.3174   73.9247 O.3    1134      M_A    0.0000
   7942 H         232.5579  189.2766   75.3229 H      1134      M_A    0.0000
   7943 H         231.0951  189.9758   76.0318 H      1134      M_A    0.0000
   7944 H         231.9283  189.6905   73.1650 H      1134      M_A    0.0000
   7945 H         230.9596  191.1389   73.5558 H      1134      M_A    0.0000
   7946 C         229.8365  188.6447   72.6990 C.3    1135      M_A    0.0000
   7947 C         228.3743  188.6127   72.2721 C.3    1135      M_A    0.0000
   7948 O         227.9928  187.2562   72.0480 O.3    1135      M_A    0.0000
   7949 H         230.4231  189.1583   71.9288 H      1135      M_A    0.0000
   7950 H         230.2258  187.6242   72.7884 H      1135      M_A    0.0000
   7951 H         228.2793  189.1879   71.3403 H      1135      M_A    0.0000
   7952 H         227.7251  189.0653   73.0335 H      1135      M_A    0.0000
   7953 C         226.7752  187.1909   71.3366 C.3    1136      M_A    0.0000
   7954 C         225.7773  186.2271   71.9664 C.3    1136      M_A    0.0000
   7955 O         224.8480  185.8125   70.9662 O.3    1136      M_A    0.0000
   7956 H         226.3372  188.1952   71.3135 H      1136      M_A    0.0000
   7957 H         226.9839  186.8951   70.3022 H      1136      M_A    0.0000
   7958 H         225.2503  186.7602   72.7701 H      1136      M_A    0.0000
   7959 H         226.2828  185.3520   72.3963 H      1136      M_A    0.0000
   7960 C         225.4196  184.8289   70.1305 C.3    1137      M_A    0.0000
   7961 C         224.4998  184.4235   68.9855 C.3    1137      M_A    0.0000
   7962 O         223.6892  183.3306   69.4147 O.3    1137      M_A    0.0000
   7963 H         226.3514  185.2302   69.7162 H      1137      M_A    0.0000
   7964 H         225.6753  183.9527   70.7371 H      1137      M_A    0.0000
   7965 H         225.1277  184.1147   68.1379 H      1137      M_A    0.0000
   7966 H         223.8645  185.2608   68.6669 H      1137      M_A    0.0000
   7967 C         222.6566  183.0796   68.4855 C.3    1138      M_A    0.0000
   7968 C         221.6155  184.1914   68.4491 C.3    1138      M_A    0.0000
   7969 O         220.3236  183.6039   68.3020 O.3    1138      M_A    0.0000
   7970 H         223.1068  182.9781   67.4916 H      1138      M_A    0.0000
   7971 H         222.1799  182.1246   68.7340 H      1138      M_A    0.0000
   7972 H         221.8353  184.8352   67.5859 H      1138      M_A    0.0000
   7973 H         221.6496  184.8016   69.3616 H      1138      M_A    0.0000
   7974 C         220.1622  183.0711   67.0048 C.3    1139      M_A    0.0000
   7975 C         218.7683  182.5014   66.7725 C.3    1139      M_A    0.0000
   7976 O         218.8788  181.0952   66.5569 O.3    1139      M_A    0.0000
   7977 H         220.3471  183.8717   66.2796 H      1139      M_A    0.0000
   7978 H         220.9186  182.2947   66.8433 H      1139      M_A    0.0000
   7979 H         218.3472  182.9856   65.8802 H      1139      M_A    0.0000
   7980 H         218.1073  182.7002   67.6266 H      1139      M_A    0.0000
   7981 C         217.7303  180.5984   65.9036 C.3    1140      M_A    0.0000
   7982 C         216.5230  180.5032   66.8281 C.3    1140      M_A    0.0000
   7983 O         215.5423  179.6674   66.2154 O.3    1140      M_A    0.0000
   7984 H         217.4917  181.2701   65.0712 H      1140      M_A    0.0000
   7985 H         217.9604  179.6137   65.4811 H      1140      M_A    0.0000
   7986 H         216.1194  181.5161   66.9659 H      1140      M_A    0.0000
   7987 H         216.8019  180.0983   67.8101 H      1140      M_A    0.0000
   7988 C         215.7361  179.6118   64.8182 C.3    1141      M_A    0.0000
   7989 C         214.4420  179.3586   64.0548 C.3    1141      M_A    0.0000
   7990 O         214.3147  177.9566   63.8225 O.3    1141      M_A    0.0000
   7991 H         216.1625  180.5674   64.4928 H      1141      M_A    0.0000
   7992 H         216.4669  178.8270   64.5922 H      1141      M_A    0.0000
   7993 H         214.5021  179.8937   63.0967 H      1141      M_A    0.0000
   7994 H         213.5703  179.7285   64.6111 H      1141      M_A    0.0000
   7995 C         212.9677  177.5511   63.9407 C.3    1142      M_A    0.0000
   7996 C         212.6867  176.2314   63.2332 C.3    1142      M_A    0.0000
   7997 O         211.2764  176.0921   63.0678 O.3    1142      M_A    0.0000
   7998 H         212.7344  177.4429   65.0060 H      1142      M_A    0.0000
   7999 H         212.3229  178.3401   63.5373 H      1142      M_A    0.0000
   8000 H         213.0725  175.4183   63.8640 H      1142      M_A    0.0000
   8001 H         213.1863  176.1869   62.2561 H      1142      M_A    0.0000
   8002 C         210.9417  174.7622   62.7331 C.3    1143      M_A    0.0000
   8003 C         209.7439  174.6756   61.7954 C.3    1143      M_A    0.0000
   8004 O         208.7386  173.8714   62.4105 O.3    1143      M_A    0.0000
   8005 H         211.8099  174.3018   62.2482 H      1143      M_A    0.0000
   8006 H         210.7404  174.2042   63.6546 H      1143      M_A    0.0000
   8007 H         210.0781  174.2071   60.8591 H      1143      M_A    0.0000
   8008 H         209.3416  175.6717   61.5672 H      1143      M_A    0.0000
   8009 C         207.8606  173.3412   61.4407 C.3    1144      M_A    0.0000
   8010 C         206.5071  174.0406   61.4279 C.3    1144      M_A    0.0000
   8011 O         205.5606  173.1938   60.7774 O.3    1144      M_A    0.0000
   8012 H         208.3298  173.4514   60.4564 H      1144      M_A    0.0000
   8013 H         207.7295  172.2695   61.6286 H      1144      M_A    0.0000
   8014 H         206.6153  174.9808   60.8691 H      1144      M_A    0.0000
   8015 H         206.1669  174.2727   62.4460 H      1144      M_A    0.0000
   8016 C         206.0751  171.8870   60.6348 C.3    1145      M_A    0.0000
   8017 C         205.4287  171.1229   59.4860 C.3    1145      M_A    0.0000
   8018 O         204.3191  170.3842   59.9947 O.3    1145      M_A    0.0000
   8019 H         207.1534  171.9607   60.4538 H      1145      M_A    0.0000
   8020 H         205.9320  171.3445   61.5762 H      1145      M_A    0.0000
   8021 H         206.1785  170.4350   59.0706 H      1145      M_A    0.0000
   8022 H         205.0952  171.8029   58.6906 H      1145      M_A    0.0000
   8023 C         203.9940  169.3144   59.1330 C.3    1146      M_A    0.0000
   8024 C         202.9734  169.7043   58.0710 C.3    1146      M_A    0.0000
   8025 O         201.7735  168.9660   58.2967 O.3    1146      M_A    0.0000
   8026 H         204.9136  168.9796   58.6399 H      1146      M_A    0.0000
   8027 H         203.6145  168.4789   59.7321 H      1146      M_A    0.0000
   8028 H         203.3916  169.4486   57.0873 H      1146      M_A    0.0000
   8029 H         202.7625  170.7818   58.0952 H      1146      M_A    0.0000
   8030 C         201.0413  168.8246   57.0982 C.3    1147      M_A    0.0000
   8031 C         199.5348  168.8271   57.3258 C.3    1147      M_A    0.0000
   8032 O         198.9470  167.8150   56.5098 O.3    1147      M_A    0.0000
   8033 H         201.3046  169.6565   56.4352 H      1147      M_A    0.0000
   8034 H         201.3463  167.8955   56.6034 H      1147      M_A    0.0000
   8035 H         199.1486  169.8143   57.0355 H      1147      M_A    0.0000
   8036 H         199.2893  168.6491   58.3814 H      1147      M_A    0.0000
   8037 C         197.6850  168.2293   56.0318 C.3    1148      M_A    0.0000
   8038 C         196.6054  167.1726   56.2299 C.3    1148      M_A    0.0000
   8039 O         196.0875  166.8026   54.9530 O.3    1148      M_A    0.0000
   8040 H         197.3971  169.1403   56.5686 H      1148      M_A    0.0000
   8041 H         197.7738  168.4832   54.9693 H      1148      M_A    0.0000
   8042 H         195.8079  167.6124   56.8451 H      1148      M_A    0.0000
   8043 H         197.0015  166.2878   56.7461 H      1148      M_A    0.0000
   8044 C         194.8749  166.0935   55.0923 C.3    1149      M_A    0.0000
   8045 C         194.8547  164.7996   54.2880 C.3    1149      M_A    0.0000
   8046 O         193.4997  164.4684   53.9881 O.3    1149      M_A    0.0000
   8047 H         194.7354  165.8576   56.1534 H      1149      M_A    0.0000
   8048 H         194.0470  166.7421   54.7841 H      1149      M_A    0.0000
   8049 H         195.3066  164.0093   54.9038 H      1149      M_A    0.0000
   8050 H         195.4328  164.8967   53.3593 H      1149      M_A    0.0000
   8051 C         193.3138  163.0691   53.9978 C.3    1150      M_A    0.0000
   8052 C         192.4602  162.5813   52.8338 C.3    1150      M_A    0.0000
   8053 O         191.1924  162.1650   53.3391 O.3    1150      M_A    0.0000
   8054 H         194.2988  162.5918   53.9439 H      1150      M_A    0.0000
   8055 H         192.8549  162.7786   54.9497 H      1150      M_A    0.0000
   8056 H         192.9758  161.7303   52.3671 H      1150      M_A    0.0000
   8057 H         192.3246  163.3681   52.0797 H      1150      M_A    0.0000
   8058 C         190.5537  161.2946   52.4297 C.3    1151      M_A    0.0000
   8059 C         189.3944  161.9578   51.6966 C.3    1151      M_A    0.0000
   8060 O         188.4667  160.9489   51.3001 O.3    1151      M_A    0.0000
   8061 H         191.2962  160.9596   51.6965 H      1151      M_A    0.0000
   8062 H         190.2003  160.4108   52.9729 H      1151      M_A    0.0000
   8063 H         189.7986  162.4653   50.8095 H      1151      M_A    0.0000
   8064 H         188.8932  162.7016   52.3304 H      1151      M_A    0.0000
   8065 C         187.7167  160.4971   52.4073 C.3    1152      M_A    0.0000
   8066 C         186.8845  159.2612   52.0888 C.3    1152      M_A    0.0000
   8067 O         185.6086  159.6805   51.6068 O.3    1152      M_A    0.0000
   8068 H         188.4131  160.2601   53.2196 H      1152      M_A    0.0000
   8069 H         187.0677  161.3102   52.7520 H      1152      M_A    0.0000
   8070 H         186.7638  158.6841   53.0164 H      1152      M_A    0.0000
   8071 H         187.3795  158.6273   51.3410 H      1152      M_A    0.0000
   8072 C         185.7065  160.1521   50.2799 C.3    1153      M_A    0.0000
   8073 C         184.6489  159.5508   49.3627 C.3    1153      M_A    0.0000
   8074 O         185.2454  158.5002   48.6036 O.3    1153      M_A    0.0000
   8075 H         185.5906  161.2418   50.2938 H      1153      M_A    0.0000
   8076 H         186.7088  159.9290   49.8969 H      1153      M_A    0.0000
   8077 H         184.2916  160.3433   48.6901 H      1153      M_A    0.0000
   8078 H         183.7958  159.1635   49.9356 H      1153      M_A    0.0000
   8079 C         184.2550  157.6687   48.0376 C.3    1154      M_A    0.0000
   8080 C         183.5253  156.8303   49.0797 C.3    1154      M_A    0.0000
   8081 O         182.4939  156.0889   48.4300 O.3    1154      M_A    0.0000
   8082 H         183.5294  158.3045   47.5178 H      1154      M_A    0.0000
   8083 H         184.7227  157.0179   47.2901 H      1154      M_A    0.0000
   8084 H         183.0865  157.5141   49.8198 H      1154      M_A    0.0000
   8085 H         184.2125  156.1464   49.5956 H      1154      M_A    0.0000
   8086 C         182.0240  156.7790   47.2918 C.3    1155      M_A    0.0000
   8087 C         180.5371  156.5583   47.0427 C.3    1155      M_A    0.0000
   8088 O         180.3849  155.5378   46.0572 O.3    1155      M_A    0.0000
   8089 H         182.2071  157.8493   47.4398 H      1155      M_A    0.0000
   8090 H         182.6041  156.4598   46.4185 H      1155      M_A    0.0000
   8091 H         180.1102  157.5018   46.6746 H      1155      M_A    0.0000
   8092 H         180.0151  156.2713   47.9653 H      1155      M_A    0.0000
   8093 C         179.3865  154.6170   46.4420 C.3    1156      M_A    0.0000
   8094 C         178.7472  153.9117   45.2523 C.3    1156      M_A    0.0000
   8095 O         177.4240  153.5166   45.6116 O.3    1156      M_A    0.0000
   8096 H         179.8448  153.8683   47.0980 H      1156      M_A    0.0000
   8097 H         178.6217  155.1449   47.0230 H      1156      M_A    0.0000
   8098 H         179.3525  153.0251   45.0170 H      1156      M_A    0.0000
   8099 H         178.7184  154.5636   44.3689 H      1156      M_A    0.0000
   8100 C         176.8221  152.7804   44.5684 C.3    1157      M_A    0.0000
   8101 C         175.3074  152.6933   44.7084 C.3    1157      M_A    0.0000
   8102 O         174.8406  151.5813   43.9459 O.3    1157      M_A    0.0000
   8103 H         177.0663  153.2692   43.6185 H      1157      M_A    0.0000
   8104 H         177.2572  151.7748   44.5467 H      1157      M_A    0.0000
   8105 H         174.8755  153.6248   44.3163 H      1157      M_A    0.0000
   8106 H         175.0085  152.5811   45.7592 H      1157      M_A    0.0000
   8107 C         173.5800  151.8608   43.3755 C.3    1158      M_A    0.0000
   8108 C         172.6350  150.6667   43.4240 C.3    1158      M_A    0.0000
   8109 O         172.1096  150.4456   42.1160 O.3    1158      M_A    0.0000
   8110 H         173.1315  152.6950   43.9268 H      1158      M_A    0.0000
   8111 H         173.7238  152.1861   42.3389 H      1158      M_A    0.0000
   8112 H         171.8192  150.9066   44.1203 H      1158      M_A    0.0000
   8113 H         173.1488  149.7640   43.7806 H      1158      M_A    0.0000
   8114 C         170.8746  149.7651   42.1823 C.3    1159      M_A    0.0000
   8115 C         170.9296  148.3834   41.5425 C.3    1159      M_A    0.0000
   8116 O         169.6157  148.0229   41.1187 O.3    1159      M_A    0.0000
   8117 H         170.5970  149.6603   43.2372 H      1159      M_A    0.0000
   8118 H         170.1061  150.3760   41.6951 H      1159      M_A    0.0000
   8119 H         171.2879  147.6720   42.2997 H      1159      M_A    0.0000
   8120 H         171.6189  148.3654   40.6877 H      1159      M_A    0.0000
   8121 C         169.5443  146.6422   40.8337 C.3    1160      M_A    0.0000
   8122 C         168.5399  146.3201   39.7341 C.3    1160      M_A    0.0000
   8123 O         167.6452  145.3164   40.2114 O.3    1160      M_A    0.0000
   8124 H         170.5387  146.3047   40.5203 H      1160      M_A    0.0000
   8125 H         169.2840  146.1033   41.7518 H      1160      M_A    0.0000
   8126 H         169.0967  145.9435   38.8646 H      1160      M_A    0.0000
   8127 H         167.9769  147.2133   39.4322 H      1160      M_A    0.0000
   8128 C         166.7153  145.8673   41.1194 C.3    1161      M_A    0.0000
   8129 C         165.2982  145.9023   40.5609 C.3    1161      M_A    0.0000
   8130 O         164.8900  147.2636   40.4336 O.3    1161      M_A    0.0000
   8131 H         166.7256  145.2602   42.0317 H      1161      M_A    0.0000
   8132 H         167.0394  146.8789   41.3893 H      1161      M_A    0.0000
   8133 H         164.6406  145.3781   41.2686 H      1161      M_A    0.0000
   8134 H         165.2396  145.3993   39.5864 H      1161      M_A    0.0000
   8135 C         163.9009  147.3971   39.4354 C.3    1162      M_A    0.0000
   8136 C         164.4521  147.1903   38.0301 C.3    1162      M_A    0.0000
   8137 O         163.3720  146.8576   37.1593 O.3    1162      M_A    0.0000
   8138 H         163.1186  146.6537   39.6260 H      1162      M_A    0.0000
   8139 H         163.4440  148.3897   39.5190 H      1162      M_A    0.0000
   8140 H         165.1736  146.3620   38.0663 H      1162      M_A    0.0000
   8141 H         164.9660  148.0898   37.6655 H      1162      M_A    0.0000
   8142 C         162.9137  145.5462   37.4105 C.3    1163      M_A    0.0000
   8143 C         163.2493  144.5798   36.2815 C.3    1163      M_A    0.0000
   8144 O         162.4742  143.3936   36.4489 O.3    1163      M_A    0.0000
   8145 H         163.3806  145.1912   38.3362 H      1163      M_A    0.0000
   8146 H         161.8304  145.5739   37.5737 H      1163      M_A    0.0000
   8147 H         164.3201  144.3404   36.3456 H      1163      M_A    0.0000
   8148 H         163.0462  145.0264   35.2989 H      1163      M_A    0.0000
   8149 C         161.0958  143.6969   36.4720 C.3    1164      M_A    0.0000
   8150 C         160.2358  142.4961   36.8461 C.3    1164      M_A    0.0000
   8151 O         159.5265  142.0623   35.6866 O.3    1164      M_A    0.0000
   8152 H         160.9326  144.4960   37.2040 H      1164      M_A    0.0000
   8153 H         160.8003  144.0808   35.4890 H      1164      M_A    0.0000
   8154 H         159.5261  142.8146   37.6226 H      1164      M_A    0.0000
   8155 H         160.8469  141.6743   37.2427 H      1164      M_A    0.0000
   8156 C         158.4775  141.1868   36.0413 C.3    1165      M_A    0.0000
   8157 C         158.3075  140.0414   35.0510 C.3    1165      M_A    0.0000
   8158 O         157.0252  139.4490   35.2524 O.3    1165      M_A    0.0000
   8159 H         158.6960  140.7736   37.0324 H      1165      M_A    0.0000
   8160 H         157.5469  141.7605   36.1177 H      1165      M_A    0.0000
   8161 H         159.0971  139.3024   35.2468 H      1165      M_A    0.0000
   8162 H         158.4016  140.3915   34.0143 H      1165      M_A    0.0000
   8163 C         157.0260  138.1015   34.8317 C.3    1166      M_A    0.0000
   8164 C         157.4789  137.9371   33.3863 C.3    1166      M_A    0.0000
   8165 O         156.4272  138.3712   32.5252 O.3    1166      M_A    0.0000
   8166 H         157.7024  137.5387   35.4850 H      1166      M_A    0.0000
   8167 H         156.0190  137.6888   34.9607 H      1166      M_A    0.0000
   8168 H         157.6887  136.8720   33.2146 H      1166      M_A    0.0000
   8169 H         158.3920  138.5132   33.1850 H      1166      M_A    0.0000
   8170 C         155.6097  137.2840   32.1481 C.3    1167      M_A    0.0000
   8171 C         155.0679  137.4196   30.7306 C.3    1167      M_A    0.0000
   8172 O         154.1098  136.3865   30.5061 O.3    1167      M_A    0.0000
   8173 H         156.2053  136.3667   32.2175 H      1167      M_A    0.0000
   8174 H         154.7821  137.1980   32.8615 H      1167      M_A    0.0000
   8175 H         155.9097  137.3086   30.0327 H      1167      M_A    0.0000
   8176 H         154.6053  138.4029   30.5714 H      1167      M_A    0.0000
   8177 C         152.9616  136.9008   29.8659 C.3    1168      M_A    0.0000
   8178 C         151.6932  136.7047   30.6869 C.3    1168      M_A    0.0000
   8179 O         150.8883  135.7104   30.0550 O.3    1168      M_A    0.0000
   8180 H         153.1152  137.9722   29.6948 H      1168      M_A    0.0000
   8181 H         152.8554  136.4194   28.8871 H      1168      M_A    0.0000
   8182 H         151.1542  137.6621   30.7141 H      1168      M_A    0.0000
   8183 H         151.9259  136.4019   31.7166 H      1168      M_A    0.0000
   8184 C         149.7580  135.4072   30.8444 C.3    1169      M_A    0.0000
   8185 C         149.2643  133.9802   30.6407 C.3    1169      M_A    0.0000
   8186 O         147.9902  134.0240   29.9999 O.3    1169      M_A    0.0000
   8187 H         150.0279  135.5456   31.8975 H      1169      M_A    0.0000
   8188 H         148.9592  136.1198   30.6092 H      1169      M_A    0.0000
   8189 H         149.1711  133.5082   31.6289 H      1169      M_A    0.0000
   8190 H         149.9698  133.3952   30.0357 H      1169      M_A    0.0000
   8191 C         147.2360  132.8714   30.3089 C.3    1170      M_A    0.0000
   8192 C         146.9158  132.0312   29.0789 C.3    1170      M_A    0.0000
   8193 O         145.5042  131.8336   29.0146 O.3    1170      M_A    0.0000
   8194 H         147.8114  132.2646   31.0170 H      1170      M_A    0.0000
   8195 H         146.3096  133.1768   30.8085 H      1170      M_A    0.0000
   8196 H         147.4255  131.0634   29.1860 H      1170      M_A    0.0000
   8197 H         147.2700  132.5164   28.1595 H      1170      M_A    0.0000
   8198 C         145.1978  130.6409   28.3244 C.3    1171      M_A    0.0000
   8199 C         144.1576  130.8455   27.2300 C.3    1171      M_A    0.0000
   8200 O         143.2842  129.7174   27.2122 O.3    1171      M_A    0.0000
   8201 H         146.1208  130.2585   27.8739 H      1171      M_A    0.0000
   8202 H         144.8451  129.8943   29.0450 H      1171      M_A    0.0000
   8203 H         144.6857  130.9263   26.2696 H      1171      M_A    0.0000
   8204 H         143.5806  131.7655   27.3935 H      1171      M_A    0.0000
   8205 C         142.3838  129.7658   28.2982 C.3    1172      M_A    0.0000
   8206 C         141.2292  128.7829   28.1489 C.3    1172      M_A    0.0000
   8207 O         140.1976  129.4020   27.3819 O.3    1172      M_A    0.0000
   8208 H         142.9379  129.5307   29.2140 H      1172      M_A    0.0000
   8209 H         141.9991  130.7875   28.3951 H      1172      M_A    0.0000
   8210 H         140.8558  128.5416   29.1540 H      1172      M_A    0.0000
   8211 H         141.5547  127.8543   27.6614 H      1172      M_A    0.0000
   8212 C         140.4378  129.2412   26.0001 C.3    1173      M_A    0.0000
   8213 C         139.3417  128.4462   25.3015 C.3    1173      M_A    0.0000
   8214 O         139.9435  127.3680   24.5866 O.3    1173      M_A    0.0000
   8215 H         140.5036  130.2361   25.5454 H      1173      M_A    0.0000
   8216 H         141.4069  128.7480   25.8634 H      1173      M_A    0.0000
   8217 H         138.8268  129.1193   24.6016 H      1173      M_A    0.0000
   8218 H         138.6085  128.0579   26.0210 H      1173      M_A    0.0000
   8219 C         138.9674  126.6274   23.8853 C.3    1174      M_A    0.0000
   8220 C         137.8124  126.1861   24.7756 C.3    1174      M_A    0.0000
   8221 O         136.8662  125.4752   23.9786 O.3    1174      M_A    0.0000
   8222 H         138.5764  127.2549   23.0764 H      1174      M_A    0.0000
   8223 H         139.4457  125.7541   23.4275 H      1174      M_A    0.0000
   8224 H         137.3454  127.0868   25.1982 H      1174      M_A    0.0000
   8225 H         138.1627  125.5507   25.6000 H      1174      M_A    0.0000
   8226 C         136.8039  126.0160   22.6762 C.3    1175      M_A    0.0000
   8227 C         135.4191  125.8910   22.0533 C.3    1175      M_A    0.0000
   8228 O         135.3506  124.6612   21.3331 O.3    1175      M_A    0.0000
   8229 H         137.0772  127.0759   22.7314 H      1175      M_A    0.0000
   8230 H         137.5471  125.5131   22.0471 H      1175      M_A    0.0000
   8231 H         135.2777  126.7367   21.3657 H      1175      M_A    0.0000
   8232 H         134.6318  125.9234   22.8183 H      1175      M_A    0.0000
   8233 C         134.0485  124.1192   21.3931 C.3    1176      M_A    0.0000
   8234 C         134.0405  122.5980   21.3076 C.3    1176      M_A    0.0000
   8235 O         132.7212  122.1652   20.9790 O.3    1176      M_A    0.0000
   8236 H         133.5923  124.4269   22.3408 H      1176      M_A    0.0000
   8237 H         133.4488  124.5457   20.5811 H      1176      M_A    0.0000
   8238 H         134.3318  122.2006   22.2900 H      1176      M_A    0.0000
   8239 H         134.7537  122.2357   20.5552 H      1176      M_A    0.0000
   8240 C         132.4720  122.3265   19.5990 C.3    1177      M_A    0.0000
   8241 C         130.9848  122.3912   19.2738 C.3    1177      M_A    0.0000
   8242 O         130.5482  121.0945   18.8690 O.3    1177      M_A    0.0000
   8243 H         132.9510  123.2557   19.2702 H      1177      M_A    0.0000
   8244 H         132.9415  121.4994   19.0545 H      1177      M_A    0.0000
   8245 H         130.8474  123.1070   18.4512 H      1177      M_A    0.0000
   8246 H         130.4005  122.7318   20.1389 H      1177      M_A    0.0000
   8247 C         129.5672  121.1908   17.8585 C.3    1178      M_A    0.0000
   8248 C         128.1679  120.8632   18.3644 C.3    1178      M_A    0.0000
   8249 O         127.7112  119.6791   17.7124 O.3    1178      M_A    0.0000
   8250 H         129.5762  122.2148   17.4682 H      1178      M_A    0.0000
   8251 H         129.8378  120.5189   17.0360 H      1178      M_A    0.0000
   8252 H         127.5096  121.7070   18.1142 H      1178      M_A    0.0000
   8253 H         128.1594  120.7204   19.4533 H      1178      M_A    0.0000
   8254 C         126.3186  119.5215   17.8815 C.3    1179      M_A    0.0000
   8255 C         125.8787  118.0646   17.8086 C.3    1179      M_A    0.0000
   8256 O         124.6893  117.9844   17.0247 O.3    1179      M_A    0.0000
   8257 H         126.0435  119.9299   18.8605 H      1179      M_A    0.0000
   8258 H         125.7993  120.1108   17.1173 H      1179      M_A    0.0000
   8259 H         125.6774  117.7184   18.8322 H      1179      M_A    0.0000
   8260 H         126.6618  117.4316   17.3701 H      1179      M_A    0.0000
   8261 C         123.8363  116.9714   17.5136 C.3    1180      M_A    0.0000
   8262 C         123.3916  116.0016   16.4259 C.3    1180      M_A    0.0000
   8263 O         121.9684  116.0396   16.3329 O.3    1180      M_A    0.0000
   8264 H         124.3736  116.4160   18.2906 H      1180      M_A    0.0000
   8265 H         122.9628  117.4386   17.9824 H      1180      M_A    0.0000
   8266 H         123.7220  114.9935   16.7133 H      1180      M_A    0.0000
   8267 H         123.8390  116.2559   15.4557 H      1180      M_A    0.0000
   8268 C         121.4686  114.8220   15.8227 C.3    1181      M_A    0.0000
   8269 C         120.7417  114.9952   14.4949 C.3    1181      M_A    0.0000
   8270 O         119.6822  114.0421   14.4255 O.3    1181      M_A    0.0000
   8271 H         122.3122  114.1369   15.6823 H      1181      M_A    0.0000
   8272 H         120.7970  114.3753   16.5647 H      1181      M_A    0.0000
   8273 H         121.4632  114.8135   13.6859 H      1181      M_A    0.0000
   8274 H         120.3408  116.0120   14.3878 H      1181      M_A    0.0000
   8275 C         119.4689  113.6287   13.0928 C.3    1182      M_A    0.0000
   8276 C         117.9907  113.5070   12.7444 C.3    1182      M_A    0.0000
   8277 O         117.7062  112.1456   12.4258 O.3    1182      M_A    0.0000
   8278 H         119.9343  114.3641   12.4268 H      1182      M_A    0.0000
   8279 H         119.9741  112.6692   12.9337 H      1182      M_A    0.0000
   8280 H         117.7932  114.1455   11.8718 H      1182      M_A    0.0000
   8281 H         117.3549  113.8396   13.5758 H      1182      M_A    0.0000
   8282 C         116.4912  112.0425   11.7146 C.3    1183      M_A    0.0000
   8283 C         115.4580  111.1867   12.4368 C.3    1183      M_A    0.0000
   8284 O         114.5089  110.7127   11.4827 O.3    1183      M_A    0.0000
   8285 H         116.0872  113.0519   11.5776 H      1183      M_A    0.0000
   8286 H         116.6957  111.6282   10.7208 H      1183      M_A    0.0000
   8287 H         114.9559  111.8176   13.1837 H      1183      M_A    0.0000
   8288 H         115.9298  110.3389   12.9514 H      1183      M_A    0.0000
   8289 C         114.0730  111.7639   10.6474 C.3    1184      M_A    0.0000
   8290 C         114.9801  111.9706    9.4408 C.3    1184      M_A    0.0000
   8291 O         115.4618  113.3136    9.4553 O.3    1184      M_A    0.0000
   8292 H         113.0614  111.5277   10.2984 H      1184      M_A    0.0000
   8293 H         114.0147  112.6854   11.2376 H      1184      M_A    0.0000
   8294 H         114.3847  111.7955    8.5337 H      1184      M_A    0.0000
   8295 H         115.8241  111.2681    9.4496 H      1184      M_A    0.0000
   8296 C         114.9102  114.0303   10.5391 C.3    1185      M_A    0.0000
   8297 C         114.8080  115.5254   10.2642 C.3    1185      M_A    0.0000
   8298 O         114.9199  116.2269   11.5016 O.3    1185      M_A    0.0000
   8299 H         113.9082  113.6337   10.7382 H      1185      M_A    0.0000
   8300 H         115.5219  113.8518   11.4307 H      1185      M_A    0.0000
   8301 H         113.8269  115.7214    9.8093 H      1185      M_A    0.0000
   8302 H         115.5912  115.8592    9.5703 H      1185      M_A    0.0000
   8303 C         116.2131  116.0748   12.0467 C.3    1186      M_A    0.0000
   8304 C         116.2112  116.0627   13.5703 C.3    1186      M_A    0.0000
   8305 O         116.9653  117.1801   14.0377 O.3    1186      M_A    0.0000
   8306 H         116.6302  115.1294   11.6817 H      1186      M_A    0.0000
   8307 H         116.8517  116.8850   11.6768 H      1186      M_A    0.0000
   8308 H         116.6816  115.1269   13.9036 H      1186      M_A    0.0000
   8309 H         115.1890  116.1051   13.9695 H      1186      M_A    0.0000
   8310 C         118.3328  117.0264   13.7233 C.3    1187      M_A    0.0000
   8311 C         119.2442  117.3044   14.9123 C.3    1187      M_A    0.0000
   8312 O         119.2900  118.7132   15.1340 O.3    1187      M_A    0.0000
   8313 H         118.4929  115.9972   13.3827 H      1187      M_A    0.0000
   8314 H         118.5833  117.6949   12.8918 H      1187      M_A    0.0000
   8315 H         120.2480  116.9306   14.6661 H      1187      M_A    0.0000
   8316 H         118.8894  116.7925   15.8168 H      1187      M_A    0.0000
   8317 C         120.3628  119.0497   15.9876 C.3    1188      M_A    0.0000
   8318 C         121.3702  119.9819   15.3262 C.3    1188      M_A    0.0000
   8319 O         122.1967  120.5548   16.3385 O.3    1188      M_A    0.0000
   8320 H         119.9523  119.5397   16.8777 H      1188      M_A    0.0000
   8321 H         120.8591  118.1286   16.3140 H      1188      M_A    0.0000
   8322 H         120.8115  120.7727   14.8062 H      1188      M_A    0.0000
   8323 H         121.9890  119.4472   14.5933 H      1188      M_A    0.0000
   8324 C         123.4280  120.9811   15.7957 C.3    1189      M_A    0.0000
   8325 C         124.4979  121.1923   16.8598 C.3    1189      M_A    0.0000
   8326 O         123.9962  122.1006   17.8391 O.3    1189      M_A    0.0000
   8327 H         123.7730  120.2192   15.0876 H      1189      M_A    0.0000
   8328 H         123.2664  121.9083   15.2343 H      1189      M_A    0.0000
   8329 H         125.3843  121.6200   16.3707 H      1189      M_A    0.0000
   8330 H         124.7811  120.2442   17.3362 H      1189      M_A    0.0000
   8331 C         124.1366  123.4351   17.4009 C.3    1190      M_A    0.0000
   8332 C         125.5881  123.8977   17.3809 C.3    1190      M_A    0.0000
   8333 O         125.6396  125.2202   16.8476 O.3    1190      M_A    0.0000
   8334 H         123.7234  123.5090   16.3886 H      1190      M_A    0.0000
   8335 H         123.5421  124.0867   18.0513 H      1190      M_A    0.0000
   8336 H         126.1551  123.2112   16.7366 H      1190      M_A    0.0000
   8337 H         126.0275  123.8805   18.3872 H      1190      M_A    0.0000
   8338 C         124.3936  125.8670   16.9953 C.3    1191      M_A    0.0000
   8339 C         124.2900  127.1401   16.1647 C.3    1191      M_A    0.0000
   8340 O         123.9866  128.2301   17.0340 O.3    1191      M_A    0.0000
   8341 H         123.6067  125.1710   16.6834 H      1191      M_A    0.0000
   8342 H         124.2354  126.0946   18.0556 H      1191      M_A    0.0000
   8343 H         123.4791  127.0052   15.4352 H      1191      M_A    0.0000
   8344 H         125.2232  127.3405   15.6215 H      1191      M_A    0.0000
   8345 C         123.5497  129.3510   16.2955 C.3    1192      M_A    0.0000
   8346 C         123.8888  130.6716   16.9756 C.3    1192      M_A    0.0000
   8347 O         123.0028  131.6781   16.4880 O.3    1192      M_A    0.0000
   8348 H         124.0301  129.3217   15.3110 H      1192      M_A    0.0000
   8349 H         122.4676  129.2739   16.1401 H      1192      M_A    0.0000
   8350 H         124.9262  130.9293   16.7200 H      1192      M_A    0.0000
   8351 H         123.8040  130.5927   18.0677 H      1192      M_A    0.0000
   8352 C         123.2051  132.8959   17.1727 C.3    1193      M_A    0.0000
   8353 C         122.3500  134.0298   16.6209 C.3    1193      M_A    0.0000
   8354 O         123.1358  135.2202   16.5860 O.3    1193      M_A    0.0000
   8355 H         122.9564  132.7411   18.2287 H      1193      M_A    0.0000
   8356 H         124.2667  133.1625   17.1165 H      1193      M_A    0.0000
   8357 H         121.4915  134.1666   17.2933 H      1193      M_A    0.0000
   8358 H         121.9762  133.7960   15.6151 H      1193      M_A    0.0000
   8359 C         122.4748  136.2336   15.8588 C.3    1194      M_A    0.0000
   8360 C         123.4037  137.3751   15.4641 C.3    1194      M_A    0.0000
   8361 O         123.3966  138.3514   16.5046 O.3    1194      M_A    0.0000
   8362 H         122.0529  135.7856   14.9520 H      1194      M_A    0.0000
   8363 H         121.6418  136.6159   16.4596 H      1194      M_A    0.0000
   8364 H         123.0228  137.8169   14.5326 H      1194      M_A    0.0000
   8365 H         124.4273  137.0166   15.2915 H      1194      M_A    0.0000
   8366 C         124.4208  139.3019   16.3044 C.3    1195      M_A    0.0000
   8367 C         125.3455  139.4322   17.5083 C.3    1195      M_A    0.0000
   8368 O         125.4573  140.8125   17.8522 O.3    1195      M_A    0.0000
   8369 H         125.0092  138.9938   15.4328 H      1195      M_A    0.0000
   8370 H         123.9650  140.2713   16.0724 H      1195      M_A    0.0000
   8371 H         126.3305  139.0352   17.2253 H      1195      M_A    0.0000
   8372 H         124.9681  138.8601   18.3665 H      1195      M_A    0.0000
   8373 C         124.2925  141.2583   18.5135 C.3    1196      M_A    0.0000
   8374 C         124.1422  142.7742   18.4817 C.3    1196      M_A    0.0000
   8375 O         123.4838  143.1938   19.6760 O.3    1196      M_A    0.0000
   8376 H         123.4245  140.8021   18.0243 H      1196      M_A    0.0000
   8377 H         124.3150  140.9032   19.5501 H      1196      M_A    0.0000
   8378 H         123.5332  143.0372   17.6054 H      1196      M_A    0.0000
   8379 H         125.1176  143.2713   18.3952 H      1196      M_A    0.0000
   8380 C         123.0208  144.5214   19.5508 C.3    1197      M_A    0.0000
   8381 C         124.0830  145.4651   19.0006 C.3    1197      M_A    0.0000
   8382 O         124.4504  146.3877   20.0251 O.3    1197      M_A    0.0000
   8383 H         122.1576  144.5215   18.8757 H      1197      M_A    0.0000
   8384 H         122.6768  144.8712   20.5308 H      1197      M_A    0.0000
   8385 H         123.6491  146.0052   18.1474 H      1197      M_A    0.0000
   8386 H         124.9680  144.9139   18.6556 H      1197      M_A    0.0000
   8387 C         123.4057  147.3053   20.2688 C.3    1198      M_A    0.0000
   8388 C         123.8779  148.7537   20.2446 C.3    1198      M_A    0.0000
   8389 O         124.3981  149.0870   21.5307 O.3    1198      M_A    0.0000
   8390 H         122.6396  147.1656   19.4978 H      1198      M_A    0.0000
   8391 H         122.9488  147.0738   21.2377 H      1198      M_A    0.0000
   8392 H         123.0119  149.3900   20.0138 H      1198      M_A    0.0000
   8393 H         124.6460  148.9114   19.4757 H      1198      M_A    0.0000
   8394 C         125.1037  147.9958   22.0821 C.3    1199      M_A    0.0000
   8395 C         126.5998  148.2605   22.1963 C.3    1199      M_A    0.0000
   8396 O         127.2881  147.0108   22.1801 O.3    1199      M_A    0.0000
   8397 H         124.6986  147.7945   23.0803 H      1199      M_A    0.0000
   8398 H         124.9238  147.1084   21.4648 H      1199      M_A    0.0000
   8399 H         126.7822  148.7768   23.1492 H      1199      M_A    0.0000
   8400 H         126.9572  148.8976   21.3762 H      1199      M_A    0.0000
   8401 C         128.6737  147.2013   22.3711 C.3    1200      M_A    0.0000
   8402 C         129.3070  148.0500   21.2757 C.3    1200      M_A    0.0000
   8403 O         130.5007  148.6410   21.7873 O.3    1200      M_A    0.0000
   8404 H         128.8219  147.6958   23.3378 H      1200      M_A    0.0000
   8405 H         129.1632  146.2220   22.4198 H      1200      M_A    0.0000
   8406 H         128.5900  148.8347   20.9961 H      1200      M_A    0.0000
   8407 H         129.5363  147.4487   20.3858 H      1200      M_A    0.0000
   8408 C         130.2785  149.1842   23.0711 C.3    1201      M_A    0.0000
   8409 C         130.8796  150.5748   23.2332 C.3    1201      M_A    0.0000
   8410 O         132.1118  150.4607   23.9433 O.3    1201      M_A    0.0000
   8411 H         129.1967  149.2402   23.2373 H      1201      M_A    0.0000
   8412 H         130.6956  148.5032   23.8217 H      1201      M_A    0.0000
   8413 H         130.1706  151.1869   23.8082 H      1201      M_A    0.0000
   8414 H         131.0494  151.0533   22.2594 H      1201      M_A    0.0000
   8415 C         132.6111  151.7360   24.2853 C.3    1202      M_A    0.0000
   8416 C         133.6645  152.2371   23.3051 C.3    1202      M_A    0.0000
   8417 O         134.6896  152.9066   24.0378 O.3    1202      M_A    0.0000
   8418 H         131.7718  152.4404   24.2998 H      1202      M_A    0.0000
   8419 H         133.0279  151.6941   25.2980 H      1202      M_A    0.0000
   8420 H         133.1785  152.9392   22.6131 H      1202      M_A    0.0000
   8421 H         134.0956  151.4109   22.7240 H      1202      M_A    0.0000
   8422 C         135.5191  151.9760   24.7000 C.3    1203      M_A    0.0000
   8423 C         136.7731  152.6163   25.2822 C.3    1203      M_A    0.0000
   8424 O         137.7861  152.6346   24.2776 O.3    1203      M_A    0.0000
   8425 H         134.9416  151.5178   25.5108 H      1203      M_A    0.0000
   8426 H         135.7932  151.1814   23.9966 H      1203      M_A    0.0000
   8427 H         137.1017  152.0062   26.1353 H      1203      M_A    0.0000
   8428 H         136.5742  153.6372   25.6348 H      1203      M_A    0.0000
   8429 C         137.2535  153.0525   23.0389 C.3    1204      M_A    0.0000
   8430 C         137.8376  154.3774   22.5647 C.3    1204      M_A    0.0000
   8431 O         136.8909  155.4133   22.8227 O.3    1204      M_A    0.0000
   8432 H         137.4702  152.2786   22.2939 H      1204      M_A    0.0000
   8433 H         136.1642  153.1315   23.1295 H      1204      M_A    0.0000
   8434 H         138.0237  154.2998   21.4843 H      1204      M_A    0.0000
   8435 H         138.7865  154.6003   23.0707 H      1204      M_A    0.0000
   8436 C         136.8034  155.6764   24.2069 C.3    1205      M_A    0.0000
   8437 C         135.5523  156.4629   24.5778 C.3    1205      M_A    0.0000
   8438 O         135.9327  157.5689   25.3950 O.3    1205      M_A    0.0000
   8439 H         136.7944  154.7180   24.7383 H      1205      M_A    0.0000
   8440 H         137.6996  156.2230   24.5216 H      1205      M_A    0.0000
   8441 H         134.8841  155.7944   25.1387 H      1205      M_A    0.0000
   8442 H         135.0242  156.8199   23.6835 H      1205      M_A    0.0000
   8443 C         134.8978  158.5273   25.4515 C.3    1206      M_A    0.0000
   8444 C         135.4218  159.9578   25.4722 C.3    1206      M_A    0.0000
   8445 O         135.3136  160.4656   26.8012 O.3    1206      M_A    0.0000
   8446 H         134.2578  158.3932   24.5721 H      1206      M_A    0.0000
   8447 H         134.2859  158.3369   26.3405 H      1206      M_A    0.0000
   8448 H         134.8022  160.5569   24.7901 H      1206      M_A    0.0000
   8449 H         136.4657  160.0065   25.1346 H      1206      M_A    0.0000
   8450 C         136.0075  161.6884   26.9266 C.3    1207      M_A    0.0000
   8451 C         137.5183  161.5203   26.8228 C.3    1207      M_A    0.0000
   8452 O         138.1387  162.7730   27.1086 O.3    1207      M_A    0.0000
   8453 H         135.6665  162.3596   26.1303 H      1207      M_A    0.0000
   8454 H         135.7444  162.1491   27.8856 H      1207      M_A    0.0000
   8455 H         137.7562  161.2096   25.7958 H      1207      M_A    0.0000
   8456 H         137.8841  160.7522   27.5172 H      1207      M_A    0.0000
   8457 C         139.4118  162.5794   27.6869 C.3    1208      M_A    0.0000
   8458 C         140.1083  163.8908   28.0280 C.3    1208      M_A    0.0000
   8459 O         141.5085  163.6465   28.1520 O.3    1208      M_A    0.0000
   8460 H         139.2864  161.9917   28.6033 H      1208      M_A    0.0000
   8461 H         140.0294  161.9927   26.9973 H      1208      M_A    0.0000
   8462 H         139.7043  164.2518   28.9842 H      1208      M_A    0.0000
   8463 H         139.9260  164.6527   27.2582 H      1208      M_A    0.0000
   8464 C         142.2274  164.8612   28.1743 C.3    1209      M_A    0.0000
   8465 C         143.7012  164.6661   28.5078 C.3    1209      M_A    0.0000
   8466 O         144.0281  165.4830   29.6310 O.3    1209      M_A    0.0000
   8467 H         142.1426  165.3280   27.1865 H      1209      M_A    0.0000
   8468 H         141.7621  165.5357   28.9021 H      1209      M_A    0.0000
   8469 H         144.2916  164.9761   27.6341 H      1209      M_A    0.0000
   8470 H         143.9254  163.6142   28.7296 H      1209      M_A    0.0000
   8471 C         145.2698  165.0999   30.1825 C.3    1210      M_A    0.0000
   8472 C         146.0518  166.2798   30.7462 C.3    1210      M_A    0.0000
   8473 O         147.4247  165.9074   30.8578 O.3    1210      M_A    0.0000
   8474 H         145.0806  164.3792   30.9861 H      1210      M_A    0.0000
   8475 H         145.8589  164.5910   29.4111 H      1210      M_A    0.0000
   8476 H         145.6448  166.5141   31.7398 H      1210      M_A    0.0000
   8477 H         145.9535  167.1672   30.1067 H      1210      M_A    0.0000
   8478 C         148.2548  167.0490   30.8397 C.3    1211      M_A    0.0000
   8479 C         148.9373  167.3009   32.1784 C.3    1211      M_A    0.0000
   8480 O         148.9688  168.7071   32.4185 O.3    1211      M_A    0.0000
   8481 H         149.0205  166.9041   30.0692 H      1211      M_A    0.0000
   8482 H         147.6546  167.9198   30.5526 H      1211      M_A    0.0000
   8483 H         149.9618  166.9078   32.1173 H      1211      M_A    0.0000
   8484 H         148.4124  166.7911   32.9974 H      1211      M_A    0.0000
   8485 C         148.0671  169.0585   33.4462 C.3    1212      M_A    0.0000
   8486 C         147.4489  170.4358   33.2403 C.3    1212      M_A    0.0000
   8487 O         148.0752  171.3564   34.1326 O.3    1212      M_A    0.0000
   8488 H         147.2687  168.3083   33.4734 H      1212      M_A    0.0000
   8489 H         148.5922  169.0207   34.4074 H      1212      M_A    0.0000
   8490 H         146.3759  170.3644   33.4673 H      1212      M_A    0.0000
   8491 H         147.5679  170.7769   32.2032 H      1212      M_A    0.0000
   8492 C         147.3656  172.5761   34.1707 C.3    1213      M_A    0.0000
   8493 C         148.2439  173.7776   33.8441 C.3    1213      M_A    0.0000
   8494 O         148.0623  174.7659   34.8571 O.3    1213      M_A    0.0000
   8495 H         146.5491  172.5209   33.4419 H      1213      M_A    0.0000
   8496 H         146.9177  172.6953   35.1638 H      1213      M_A    0.0000
   8497 H         147.9266  174.1761   32.8702 H      1213      M_A    0.0000
   8498 H         149.3029  173.4937   33.7808 H      1213      M_A    0.0000
   8499 C         149.3039  175.3064   35.2557 C.3    1214      M_A    0.0000
   8500 C         149.2104  176.7802   35.6306 C.3    1214      M_A    0.0000
   8501 O         150.5312  177.3011   35.7718 O.3    1214      M_A    0.0000
   8502 H         149.6629  174.7388   36.1217 H      1214      M_A    0.0000
   8503 H         150.0278  175.1688   34.4444 H      1214      M_A    0.0000
   8504 H         148.6736  176.8546   36.5868 H      1214      M_A    0.0000
   8505 H         148.6596  177.3519   34.8717 H      1214      M_A    0.0000
   8506 C         150.5214  178.4854   36.5400 C.3    1215      M_A    0.0000
   8507 C         151.7655  179.3376   36.3222 C.3    1215      M_A    0.0000
   8508 O         152.6209  179.1964   37.4555 O.3    1215      M_A    0.0000
   8509 H         149.6356  179.0674   36.2616 H      1215      M_A    0.0000
   8510 H         150.4263  178.2206   37.5992 H      1215      M_A    0.0000
   8511 H         151.4471  180.3846   36.2208 H      1215      M_A    0.0000
   8512 H         152.2988  179.0413   35.4090 H      1215      M_A    0.0000
   8513 C         153.6082  180.2052   37.4646 C.3    1216      M_A    0.0000
   8514 C         154.7658  179.9034   36.5210 C.3    1216      M_A    0.0000
   8515 O         155.9487  180.5102   37.0392 O.3    1216      M_A    0.0000
   8516 H         153.1379  181.1483   37.1639 H      1216      M_A    0.0000
   8517 H         153.9789  180.3298   38.4884 H      1216      M_A    0.0000
   8518 H         154.5241  180.3319   35.5382 H      1216      M_A    0.0000
   8519 H         154.9171  178.8217   36.4063 H      1216      M_A    0.0000
   8520 C         156.8614  180.7927   36.0000 C.3    1217      M_A    0.0000
   8521 C         157.0241  179.6304   35.0284 C.3    1217      M_A    0.0000
   8522 O         158.2135  179.8337   34.2669 O.3    1217      M_A    0.0000
   8523 H         156.4968  181.6690   35.4520 H      1217      M_A    0.0000
   8524 H         157.8302  181.0549   36.4401 H      1217      M_A    0.0000
   8525 H         156.1498  179.6188   34.3625 H      1217      M_A    0.0000
   8526 H         157.0763  178.6700   35.5585 H      1217      M_A    0.0000
   8527 C         158.1462  179.1383   33.0404 C.3    1218      M_A    0.0000
   8528 C         159.5189  178.7321   32.5187 C.3    1218      M_A    0.0000
   8529 O         160.0489  179.8051   31.7418 O.3    1218      M_A    0.0000
   8530 H         157.5391  178.2381   33.1893 H      1218      M_A    0.0000
   8531 H         157.6336  179.7671   32.3035 H      1218      M_A    0.0000
   8532 H         159.3932  177.8398   31.8895 H      1218      M_A    0.0000
   8533 H         160.2041  178.4894   33.3419 H      1218      M_A    0.0000
   8534 C         161.4103  179.5807   31.4435 C.3    1219      M_A    0.0000
   8535 C         162.3041  179.6699   32.6742 C.3    1219      M_A    0.0000
   8536 O         163.0720  180.8700   32.5960 O.3    1219      M_A    0.0000
   8537 H         161.5049  178.5813   31.0040 H      1219      M_A    0.0000
   8538 H         161.7330  180.3077   30.6896 H      1219      M_A    0.0000
   8539 H         162.9717  178.7968   32.6737 H      1219      M_A    0.0000
   8540 H         161.7129  179.6611   33.5996 H      1219      M_A    0.0000
   8541 C         164.3523  180.6813   33.1597 C.3    1220      M_A    0.0000
   8542 C         164.3090  179.9066   34.4709 C.3    1220      M_A    0.0000
   8543 O         165.1423  180.5685   35.4212 O.3    1220      M_A    0.0000
   8544 H         164.9668  180.1304   32.4386 H      1220      M_A    0.0000
   8545 H         164.8194  181.6604   33.3154 H      1220      M_A    0.0000
   8546 H         164.6893  178.8932   34.2801 H      1220      M_A    0.0000
   8547 H         163.2838  179.8313   34.8575 H      1220      M_A    0.0000
   8548 C         166.0996  179.6774   35.9523 C.3    1221      M_A    0.0000
   8549 C         166.7332  180.1931   37.2384 C.3    1221      M_A    0.0000
   8550 O         168.1441  179.9938   37.1653 O.3    1221      M_A    0.0000
   8551 H         165.6030  178.7220   36.1560 H      1221      M_A    0.0000
   8552 H         166.8730  179.4960   35.1973 H      1221      M_A    0.0000
   8553 H         166.3162  179.6184   38.0773 H      1221      M_A    0.0000
   8554 H         166.5111  181.2572   37.3951 H      1221      M_A    0.0000
   8555 C         168.7167  179.9992   38.4556 C.3    1222      M_A    0.0000
   8556 C         169.6695  181.1684   38.6711 C.3    1222      M_A    0.0000
   8557 O         170.9947  180.6588   38.8118 O.3    1222      M_A    0.0000
   8558 H         167.9059  180.0580   39.1904 H      1222      M_A    0.0000
   8559 H         169.2419  179.0505   38.6147 H      1222      M_A    0.0000
   8560 H         169.3677  181.6879   39.5914 H      1222      M_A    0.0000
   8561 H         169.6264  181.8791   37.8349 H      1222      M_A    0.0000
   8562 C         171.8622  181.6544   39.3108 C.3    1223      M_A    0.0000
   8563 C         171.7720  182.9587   38.5283 C.3    1223      M_A    0.0000
   8564 O         173.0820  183.5112   38.4074 O.3    1223      M_A    0.0000
   8565 H         171.5989  181.8458   40.3572 H      1223      M_A    0.0000
   8566 H         172.8894  181.2728   39.2906 H      1223      M_A    0.0000
   8567 H         171.1246  183.6476   39.0890 H      1223      M_A    0.0000
   8568 H         171.3378  182.7986   37.5324 H      1223      M_A    0.0000
   8569 C         174.0442  182.6414   38.9644 C.3    1224      M_A    0.0000
   8570 C         175.3863  183.3230   39.2003 C.3    1224      M_A    0.0000
   8571 O         176.4049  182.3249   39.2446 O.3    1224      M_A    0.0000
   8572 H         173.6583  182.2700   39.9205 H      1224      M_A    0.0000
   8573 H         174.1708  181.7795   38.2993 H      1224      M_A    0.0000
   8574 H         175.3354  183.8500   40.1635 H      1224      M_A    0.0000
   8575 H         175.6087  184.0529   38.4104 H      1224      M_A    0.0000
   8576 C         176.3040  181.5604   40.4269 C.3    1225      M_A    0.0000
   8577 C         177.6307  181.4444   41.1670 C.3    1225      M_A    0.0000
   8578 O         178.2211  180.1840   40.8530 O.3    1225      M_A    0.0000
   8579 H         175.5686  182.0392   41.0833 H      1225      M_A    0.0000
   8580 H         175.9250  180.5637   40.1738 H      1225      M_A    0.0000
   8581 H         177.4251  181.5042   42.2451 H      1225      M_A    0.0000
   8582 H         178.3144  182.2589   40.8928 H      1225      M_A    0.0000
   8583 C         179.6001  180.1894   41.1550 C.3    1226      M_A    0.0000
   8584 C         180.1431  178.7964   41.4484 C.3    1226      M_A    0.0000
   8585 O         181.4398  178.9240   42.0299 O.3    1226      M_A    0.0000
   8586 H         180.1373  180.6098   40.2974 H      1226      M_A    0.0000
   8587 H         179.7731  180.8499   42.0123 H      1226      M_A    0.0000
   8588 H         180.2108  178.2504   40.4970 H      1226      M_A    0.0000
   8589 H         179.4796  178.2429   42.1262 H      1226      M_A    0.0000
   8590 C         182.1616  179.9704   41.4162 C.3    1227      M_A    0.0000
   8591 C         183.6637  179.7161   41.3967 C.3    1227      M_A    0.0000
   8592 O         183.9468  178.7228   40.4123 O.3    1227      M_A    0.0000
   8593 H         181.8031  180.0763   40.3860 H      1227      M_A    0.0000
   8594 H         181.9445  180.9072   41.9419 H      1227      M_A    0.0000
   8595 H         183.9602  179.3538   42.3911 H      1227      M_A    0.0000
   8596 H         184.2224  180.6353   41.1754 H      1227      M_A    0.0000
   8597 C         185.1829  178.0948   40.6776 C.3    1228      M_A    0.0000
   8598 C         185.0395  176.6000   40.9353 C.3    1228      M_A    0.0000
   8599 O         184.7964  176.3968   42.3265 O.3    1228      M_A    0.0000
   8600 H         185.8380  178.2477   39.8125 H      1228      M_A    0.0000
   8601 H         185.6511  178.5830   41.5399 H      1228      M_A    0.0000
   8602 H         185.9807  176.1128   40.6439 H      1228      M_A    0.0000
   8603 H         184.2213  176.1686   40.3434 H      1228      M_A    0.0000
   8604 C         185.9545  175.9098   42.9699 C.3    1229      M_A    0.0000
   8605 C         186.7181  177.0004   43.7109 C.3    1229      M_A    0.0000
   8606 O         187.9062  177.3036   42.9812 O.3    1229      M_A    0.0000
   8607 H         185.6504  175.1369   43.6849 H      1229      M_A    0.0000
   8608 H         186.6026  175.4363   42.2237 H      1229      M_A    0.0000
   8609 H         186.9775  176.6169   44.7076 H      1229      M_A    0.0000
   8610 H         186.1080  177.9059   43.8295 H      1229      M_A    0.0000
   8611 C         188.9766  177.5751   43.8605 C.3    1230      M_A    0.0000
   8612 C         190.1818  178.1791   43.1506 C.3    1230      M_A    0.0000
   8613 O         191.2208  178.3839   44.1068 O.3    1230      M_A    0.0000
   8614 H         188.6231  178.2761   44.6251 H      1230      M_A    0.0000
   8615 H         189.2637  176.6468   44.3675 H      1230      M_A    0.0000
   8616 H         189.8748  179.1418   42.7184 H      1230      M_A    0.0000
   8617 H         190.5380  177.5271   42.3418 H      1230      M_A    0.0000
   8618 C         192.2295  177.4065   43.9653 C.3    1231      M_A    0.0000
   8619 C         191.8895  176.1034   44.6778 C.3    1231      M_A    0.0000
   8620 O         193.0656  175.6124   45.3194 O.3    1231      M_A    0.0000
   8621 H         192.3647  177.2054   42.8965 H      1231      M_A    0.0000
   8622 H         193.1726  177.8115   44.3496 H      1231      M_A    0.0000
   8623 H         191.5454  175.3826   43.9228 H      1231      M_A    0.0000
   8624 H         191.0903  176.2482   45.4169 H      1231      M_A    0.0000
   8625 C         192.9000  174.2635   45.7012 C.3    1232      M_A    0.0000
   8626 C         193.4805  173.9668   47.0782 C.3    1232      M_A    0.0000
   8627 O         194.8384  173.5570   46.9238 O.3    1232      M_A    0.0000
   8628 H         191.8275  174.0383   45.7086 H      1232      M_A    0.0000
   8629 H         193.3696  173.6211   44.9476 H      1232      M_A    0.0000
   8630 H         192.8922  173.1543   47.5275 H      1232      M_A    0.0000
   8631 H         193.4251  174.8462   47.7338 H      1232      M_A    0.0000
   8632 C         195.1989  172.6339   47.9291 C.3    1233      M_A    0.0000
   8633 C         196.6879  172.3111   47.9242 C.3    1233      M_A    0.0000
   8634 O         197.2931  172.9259   49.0607 O.3    1233      M_A    0.0000
   8635 H         194.9287  173.0623   48.9009 H      1233      M_A    0.0000
   8636 H         194.6138  171.7170   47.7954 H      1233      M_A    0.0000
   8637 H         197.1217  172.7202   47.0010 H      1233      M_A    0.0000
   8638 H         196.8624  171.2270   47.9454 H      1233      M_A    0.0000
   8639 C         196.3586  173.0663   50.1093 C.3    1234      M_A    0.0000
   8640 C         196.6273  174.2900   50.9764 C.3    1234      M_A    0.0000
   8641 O         197.9495  174.1953   51.5042 O.3    1234      M_A    0.0000
   8642 H         195.3589  173.1524   49.6686 H      1234      M_A    0.0000
   8643 H         196.3746  172.1584   50.7230 H      1234      M_A    0.0000
   8644 H         195.8954  174.2933   51.7963 H      1234      M_A    0.0000
   8645 H         196.5172  175.2195   50.4018 H      1234      M_A    0.0000
   8646 C         198.4980  172.9195   51.2512 C.3    1235      M_A    0.0000
   8647 C         198.2440  171.9348   52.3857 C.3    1235      M_A    0.0000
   8648 O         199.4662  171.2660   52.6934 O.3    1235      M_A    0.0000
   8649 H         198.0486  172.5293   50.3310 H      1235      M_A    0.0000
   8650 H         199.5750  173.0244   51.0770 H      1235      M_A    0.0000
   8651 H         197.4944  171.2075   52.0433 H      1235      M_A    0.0000
   8652 H         197.8586  172.4442   53.2790 H      1235      M_A    0.0000
   8653 C         200.3333  172.1165   53.4128 C.3    1236      M_A    0.0000
   8654 C         201.5817  171.3986   53.9104 C.3    1236      M_A    0.0000
   8655 O         202.4445  172.3542   54.5254 O.3    1236      M_A    0.0000
   8656 H         200.6324  172.9389   52.7531 H      1236      M_A    0.0000
   8657 H         199.7856  172.5497   54.2573 H      1236      M_A    0.0000
   8658 H         202.0818  170.9452   53.0431 H      1236      M_A    0.0000
   8659 H         201.3284  170.6049   54.6259 H      1236      M_A    0.0000
   8660 C         203.3100  171.7255   55.4465 C.3    1237      M_A    0.0000
   8661 C         203.6440  172.6129   56.6392 C.3    1237      M_A    0.0000
   8662 O         202.4515  173.2661   57.0717 O.3    1237      M_A    0.0000
   8663 H         202.8235  170.8115   55.8055 H      1237      M_A    0.0000
   8664 H         204.2287  171.4313   54.9264 H      1237      M_A    0.0000
   8665 H         204.3826  173.3583   56.3123 H      1237      M_A    0.0000
   8666 H         204.0737  172.0292   57.4643 H      1237      M_A    0.0000
   8667 C         202.6241  173.8198   58.3587 C.3    1238      M_A    0.0000
   8668 C         201.3570  173.7530   59.2021 C.3    1238      M_A    0.0000
   8669 O         201.4320  174.7501   60.2201 O.3    1238      M_A    0.0000
   8670 H         203.4217  173.2656   58.8663 H      1238      M_A    0.0000
   8671 H         202.9546  174.8596   58.2562 H      1238      M_A    0.0000
   8672 H         201.3043  172.7545   59.6583 H      1238      M_A    0.0000
   8673 H         200.4594  173.9083   58.5888 H      1238      M_A    0.0000
   8674 C         200.1407  175.1104   60.6622 C.3    1239      M_A    0.0000
   8675 C         200.1660  176.2078   61.7189 C.3    1239      M_A    0.0000
   8676 O         199.6379  175.6831   62.9361 O.3    1239      M_A    0.0000
   8677 H         199.5670  175.4603   59.7965 H      1239      M_A    0.0000
   8678 H         199.6388  174.2193   61.0559 H      1239      M_A    0.0000
   8679 H         199.5376  177.0365   61.3637 H      1239      M_A    0.0000
   8680 H         201.1852  176.5829   61.8818 H      1239      M_A    0.0000
   8681 C         199.3254  176.7255   63.8352 C.3    1240      M_A    0.0000
   8682 C         199.7354  176.4086   65.2680 C.3    1240      M_A    0.0000
   8683 O         198.9956  177.2493   66.1522 O.3    1240      M_A    0.0000
   8684 H         199.8473  177.6309   63.5054 H      1240      M_A    0.0000
   8685 H         198.2490  176.9255   63.7865 H      1240      M_A    0.0000
   8686 H         200.8107  176.6137   65.3674 H      1240      M_A    0.0000
   8687 H         199.5538  175.3534   65.5122 H      1240      M_A    0.0000
   8688 C         198.5284  178.3969   65.4759 C.3    1241      M_A    0.0000
   8689 C         198.0178  179.4724   66.4267 C.3    1241      M_A    0.0000
   8690 O         196.6763  179.8006   66.0683 O.3    1241      M_A    0.0000
   8691 H         199.3545  178.8059   64.8833 H      1241      M_A    0.0000
   8692 H         197.7348  178.1007   64.7806 H      1241      M_A    0.0000
   8693 H         198.6620  180.3563   66.3180 H      1241      M_A    0.0000
   8694 H         198.0563  179.1345   67.4709 H      1241      M_A    0.0000
   8695 C         196.2758  181.0064   66.6833 C.3    1242      M_A    0.0000
   8696 C         194.7865  181.2834   66.5199 C.3    1242      M_A    0.0000
   8697 O         194.5958  182.6902   66.3764 O.3    1242      M_A    0.0000
   8698 H         196.5128  180.9420   67.7513 H      1242      M_A    0.0000
   8699 H         196.8613  181.8314   66.2618 H      1242      M_A    0.0000
   8700 H         194.2728  180.9255   67.4232 H      1242      M_A    0.0000
   8701 H         194.3749  180.7571   65.6483 H      1242      M_A    0.0000
   8702 C         193.2902  182.9732   65.9203 C.3    1243      M_A    0.0000
   8703 C         193.2076  184.2864   65.1522 C.3    1243      M_A    0.0000
   8704 O         192.3276  185.1685   65.8475 O.3    1243      M_A    0.0000
   8705 H         192.9708  182.1547   65.2654 H      1243      M_A    0.0000
   8706 H         192.6110  182.9958   66.7801 H      1243      M_A    0.0000
   8707 H         192.8084  184.0705   64.1513 H      1243      M_A    0.0000
   8708 H         194.1973  184.7500   65.0446 H      1243      M_A    0.0000
   8709 C         191.9536  186.2522   65.0239 C.3    1244      M_A    0.0000
   8710 C         192.4529  187.5914   65.5517 C.3    1244      M_A    0.0000
   8711 O         191.5375  188.6106   65.1528 O.3    1244      M_A    0.0000
   8712 H         192.3703  186.0834   64.0246 H      1244      M_A    0.0000
   8713 H         190.8617  186.2670   64.9310 H      1244      M_A    0.0000
   8714 H         193.4420  187.7828   65.1123 H      1244      M_A    0.0000
   8715 H         192.5495  187.5796   66.6456 H      1244      M_A    0.0000
   8716 C         192.0077  189.8839   65.5404 C.3    1245      M_A    0.0000
   8717 C         190.8895  190.8049   66.0125 C.3    1245      M_A    0.0000
   8718 O         191.3023  192.1580   65.8271 O.3    1245      M_A    0.0000
   8719 H         192.7289  189.7499   66.3546 H      1245      M_A    0.0000
   8720 H         192.5392  190.3380   64.6964 H      1245      M_A    0.0000
   8721 H         190.7151  190.6088   67.0797 H      1245      M_A    0.0000
   8722 H         189.9576  190.6171   65.4627 H      1245      M_A    0.0000
   8723 C         190.1930  192.9845   65.5461 C.3    1246      M_A    0.0000
   8724 C         190.5159  194.4675   65.6800 C.3    1246      M_A    0.0000
   8725 O         190.3288  194.8555   67.0402 O.3    1246      M_A    0.0000
   8726 H         189.8645  192.7808   64.5207 H      1246      M_A    0.0000
   8727 H         189.3706  192.7154   66.2187 H      1246      M_A    0.0000
   8728 H         189.8253  195.0257   65.0323 H      1246      M_A    0.0000
   8729 H         191.5459  194.6827   65.3655 H      1246      M_A    0.0000
   8730 C         191.5723  195.0437   67.6813 C.3    1247      M_A    0.0000
   8731 C         191.8318  196.5003   68.0450 C.3    1247      M_A    0.0000
   8732 O         193.2194  196.6588   68.3370 O.3    1247      M_A    0.0000
   8733 H         191.5817  194.4393   68.5955 H      1247      M_A    0.0000
   8734 H         192.3687  194.6705   67.0276 H      1247      M_A    0.0000
   8735 H         191.2316  196.7412   68.9336 H      1247      M_A    0.0000
   8736 H         191.5397  197.1747   67.2289 H      1247      M_A    0.0000
   8737 C         193.6554  197.9583   68.0000 C.3    1248      M_A    0.0000
   8738 C         194.9737  198.3280   68.6686 C.3    1248      M_A    0.0000
   8739 O         194.9039  199.6870   69.0975 O.3    1248      M_A    0.0000
   8740 H         193.7797  198.0071   66.9123 H      1248      M_A    0.0000
   8741 H         192.8767  198.6774   68.2785 H      1248      M_A    0.0000
   8742 H         195.7762  198.2094   67.9270 H      1248      M_A    0.0000
   8743 H         195.1855  197.6736   69.5247 H      1248      M_A    0.0000
   8744 C         194.9333  200.5622   67.9903 C.3    1249      M_A    0.0000
   8745 C         196.1472  201.4830   68.0008 C.3    1249      M_A    0.0000
   8746 O         195.8516  202.6205   68.8098 O.3    1249      M_A    0.0000
   8747 H         194.9501  199.9583   67.0760 H      1249      M_A    0.0000
   8748 H         194.0111  201.1542   67.9812 H      1249      M_A    0.0000
   8749 H         196.3435  201.7990   66.9666 H      1249      M_A    0.0000
   8750 H         197.0370  200.9677   68.3869 H      1249      M_A    0.0000
   8751 C         196.9155  202.8925   69.6968 C.3    1250      M_A    0.0000
   8752 C         197.1024  201.8008   70.7431 C.3    1250      M_A    0.0000
   8753 O         198.1183  202.2118   71.6568 O.3    1250      M_A    0.0000
   8754 H         197.8360  202.9870   69.1097 H      1250      M_A    0.0000
   8755 H         196.7324  203.8561   70.1858 H      1250      M_A    0.0000
   8756 H         197.4132  200.8827   70.2249 H      1250      M_A    0.0000
   8757 H         196.1680  201.6011   71.2843 H      1250      M_A    0.0000
   8758 C         199.3815  202.2237   71.0269 C.3    1251      M_A    0.0000
   8759 C         200.5346  202.1560   72.0205 C.3    1251      M_A    0.0000
   8760 O         201.6773  202.7815   71.4386 O.3    1251      M_A    0.0000
   8761 H         199.4375  201.3604   70.3542 H      1251      M_A    0.0000
   8762 H         199.4642  203.1287   70.4144 H      1251      M_A    0.0000
   8763 H         200.7484  201.0969   72.2217 H      1251      M_A    0.0000
   8764 H         200.2766  202.6496   72.9671 H      1251      M_A    0.0000
   8765 C         202.8463  202.0385   71.7110 C.3    1252      M_A    0.0000
   8766 C         203.6154  202.5723   72.9130 C.3    1252      M_A    0.0000
   8767 O         204.9415  202.0468   72.8777 O.3    1252      M_A    0.0000
   8768 H         202.5551  200.9999   71.9048 H      1252      M_A    0.0000
   8769 H         203.4859  202.0442   70.8211 H      1252      M_A    0.0000
   8770 H         203.1017  202.2331   73.8235 H      1252      M_A    0.0000
   8771 H         203.6456  203.6701   72.9134 H      1252      M_A    0.0000
   8772 C         205.6166  202.4726   71.7134 C.3    1253      M_A    0.0000
   8773 C         206.7987  201.5790   71.3591 C.3    1253      M_A    0.0000
   8774 O         208.0015  202.2269   71.7706 O.3    1253      M_A    0.0000
   8775 H         204.9027  202.4682   70.8820 H      1253      M_A    0.0000
   8776 H         205.9542  203.5054   71.8565 H      1253      M_A    0.0000
   8777 H         206.8031  201.4369   70.2693 H      1253      M_A    0.0000
   8778 H         206.7164  200.5963   71.8425 H      1253      M_A    0.0000
   8779 C         208.8545  201.3204   72.4363 C.3    1254      M_A    0.0000
   8780 C         210.0654  202.0027   73.0605 C.3    1254      M_A    0.0000
   8781 O         211.2171  201.6991   72.2748 O.3    1254      M_A    0.0000
   8782 H         208.2782  200.8229   73.2245 H      1254      M_A    0.0000
   8783 H         209.1793  200.5516   71.7260 H      1254      M_A    0.0000
   8784 H         210.1911  201.6079   74.0785 H      1254      M_A    0.0000
   8785 H         209.9259  203.0904   73.1189 H      1254      M_A    0.0000
   8786 C         212.3560  202.3618   72.7813 C.3    1255      M_A    0.0000
   8787 C         213.4991  202.4182   71.7756 C.3    1255      M_A    0.0000
   8788 O         214.5620  201.5894   72.2440 O.3    1255      M_A    0.0000
   8789 H         212.0663  203.3835   73.0517 H      1255      M_A    0.0000
   8790 H         212.6835  201.8555   73.6965 H      1255      M_A    0.0000
   8791 H         213.8395  203.4609   71.7056 H      1255      M_A    0.0000
   8792 H         213.1736  202.0861   70.7807 H      1255      M_A    0.0000
   8793 C         215.1646  200.8966   71.1719 C.3    1256      M_A    0.0000
   8794 C         215.8756  199.6254   71.6190 C.3    1256      M_A    0.0000
   8795 O         217.2810  199.8031   71.4486 O.3    1256      M_A    0.0000
   8796 H         214.3828  200.6345   70.4501 H      1256      M_A    0.0000
   8797 H         215.8709  201.5666   70.6686 H      1256      M_A    0.0000
   8798 H         215.5227  198.7981   70.9872 H      1256      M_A    0.0000
   8799 H         215.6507  199.3887   72.6676 H      1256      M_A    0.0000
   8800 C         217.8044  200.6407   72.4572 C.3    1257      M_A    0.0000
   8801 C         219.3258  200.7163   72.4277 C.3    1257      M_A    0.0000
   8802 O         219.7857  201.1772   73.6973 O.3    1257      M_A    0.0000
   8803 H         217.3931  201.6465   72.3153 H      1257      M_A    0.0000
   8804 H         217.4638  200.2765   73.4331 H      1257      M_A    0.0000
   8805 H         219.6158  201.4286   71.6425 H      1257      M_A    0.0000
   8806 H         219.7707  199.7387   72.1986 H      1257      M_A    0.0000
   8807 C         221.0474  200.6227   74.0028 C.3    1258      M_A    0.0000
   8808 C         221.6305  201.1678   75.3005 C.3    1258      M_A    0.0000
   8809 O         223.0536  201.1693   75.1976 O.3    1258      M_A    0.0000
   8810 H         220.9325  199.5364   74.0904 H      1258      M_A    0.0000
   8811 H         221.7323  200.8187   73.1700 H      1258      M_A    0.0000
   8812 H         221.3144  200.5067   76.1196 H      1258      M_A    0.0000
   8813 H         221.2671  202.1834   75.5070 H      1258      M_A    0.0000
   8814 C         223.6325  201.8517   76.2894 C.3    1259      M_A    0.0000
   8815 C         224.9577  201.2413   76.7283 C.3    1259      M_A    0.0000
   8816 O         225.3586  201.8512   77.9544 O.3    1259      M_A    0.0000
   8817 H         223.7989  202.8936   75.9934 H      1259      M_A    0.0000
   8818 H         222.9226  201.8523   77.1243 H      1259      M_A    0.0000
   8819 H         225.7023  201.4464   75.9464 H      1259      M_A    0.0000
   8820 H         224.8738  200.1541   76.8588 H      1259      M_A    0.0000
   8821 C         226.7639  201.8311   78.0861 C.3    1260      M_A    0.0000
   8822 C         227.2797  202.8956   79.0464 C.3    1260      M_A    0.0000
   8823 O         228.4099  203.5356   78.4559 O.3    1260      M_A    0.0000
   8824 H         227.0597  200.8425   78.4550 H      1260      M_A    0.0000
   8825 H         227.2151  201.9656   77.0964 H      1260      M_A    0.0000
   8826 H         227.5763  202.3966   79.9797 H      1260      M_A    0.0000
   8827 H         226.5035  203.6382   79.2750 H      1260      M_A    0.0000
   8828 C         229.3297  203.9395   79.4476 C.3    1261      M_A    0.0000
   8829 C         229.9259  205.3142   79.1717 C.3    1261      M_A    0.0000
   8830 O         231.3331  205.2569   79.4001 O.3    1261      M_A    0.0000
   8831 H         228.8075  203.9625   80.4108 H      1261      M_A    0.0000
   8832 H         230.1264  203.1903   79.5190 H      1261      M_A    0.0000
   8833 H         229.4624  206.0311   79.8639 H      1261      M_A    0.0000
   8834 H         229.7247  205.6382   78.1418 H      1261      M_A    0.0000
   8835 C         231.8081  206.4877   79.9022 C.3    1262      M_A    0.0000
   8836 C         233.2042  206.8294   79.3968 C.3    1262      M_A    0.0000
   8837 O         234.1120  206.7878   80.4968 O.3    1262      M_A    0.0000
   8838 H         231.1125  207.2758   79.5925 H      1262      M_A    0.0000
   8839 H         231.8022  206.4502   80.9975 H      1262      M_A    0.0000
   8840 H         233.1741  207.8432   78.9735 H      1262      M_A    0.0000
   8841 H         233.5288  206.1303   78.6145 H      1262      M_A    0.0000
   8842 C         235.3741  206.3080   80.0850 C.3    1263      M_A    0.0000
   8843 C         236.4927  206.6984   81.0430 C.3    1263      M_A    0.0000
   8844 O         237.6733  206.9598   80.2857 O.3    1263      M_A    0.0000
   8845 H         235.3218  205.2152   80.0221 H      1263      M_A    0.0000
   8846 H         235.5881  206.6892   79.0800 H      1263      M_A    0.0000
   8847 H         236.6646  205.8553   81.7268 H      1263      M_A    0.0000
   8848 H         236.2219  207.5829   81.6350 H      1263      M_A    0.0000
   8849 C         238.8255  206.7966   81.0847 C.3    1264      M_A    0.0000
   8850 C         239.5236  208.1168   81.3863 C.3    1264      M_A    0.0000
   8851 O         240.9022  207.8565   81.6459 O.3    1264      M_A    0.0000
   8852 H         238.5249  206.3268   82.0281 H      1264      M_A    0.0000
   8853 H         239.5153  206.1125   80.5774 H      1264      M_A    0.0000
   8854 H         239.0508  208.5561   82.2760 H      1264      M_A    0.0000
   8855 H         239.4247  208.8219   80.5502 H      1264      M_A    0.0000
   8856 C         241.4859  208.9241   82.3617 C.3    1265      M_A    0.0000
   8857 C         242.7277  209.4814   81.6772 C.3    1265      M_A    0.0000
   8858 O         243.5571  210.0948   82.6630 O.3    1265      M_A    0.0000
   8859 H         240.7405  209.7220   82.4558 H      1265      M_A    0.0000
   8860 H         241.7345  208.5801   83.3721 H      1265      M_A    0.0000
   8861 H         242.4033  210.2305   80.9413 H      1265      M_A    0.0000
   8862 H         243.2849  208.6923   81.1548 H      1265      M_A    0.0000
   8863 C         244.9172  210.0086   82.2951 C.3    1266      M_A    0.0000
   8864 C         245.7887  211.0245   83.0230 C.3    1266      M_A    0.0000
   8865 O         247.0715  211.0573   82.3991 O.3    1266      M_A    0.0000
   8866 H         245.2727  208.9988   82.5296 H      1266      M_A    0.0000
   8867 H         245.0012  210.1475   81.2112 H      1266      M_A    0.0000
   8868 H         245.8882  210.7003   84.0684 H      1266      M_A    0.0000
   8869 H         245.3363  212.0251   83.0057 H      1266      M_A    0.0000
   8870 C         247.8449  212.1250   82.9036 C.3    1267      M_A    0.0000
   8871 C         249.3240  211.7773   83.0168 C.3    1267      M_A    0.0000
   8872 O         249.8954  212.5471   84.0735 O.3    1267      M_A    0.0000
   8873 H         247.7290  212.9810   82.2293 H      1267      M_A    0.0000
   8874 H         247.4502  212.4173   83.8833 H      1267      M_A    0.0000
   8875 H         249.8073  212.0324   82.0632 H      1267      M_A    0.0000
   8876 H         249.4696  210.7061   83.2104 H      1267      M_A    0.0000
   8877 C         251.3050  212.5241   84.0023 C.3    1268      M_A    0.0000
   8878 C         251.9459  211.8996   85.2355 C.3    1268      M_A    0.0000
   8879 O         253.3572  212.0983   85.1681 O.3    1268      M_A    0.0000
   8880 H         251.5944  211.9465   83.1171 H      1268      M_A    0.0000
   8881 H         251.6702  213.5483   83.8653 H      1268      M_A    0.0000
   8882 H         251.7178  210.8245   85.2298 H      1268      M_A    0.0000
   8883 H         251.5477  212.3395   86.1596 H      1268      M_A    0.0000
   8884 C         253.6885  213.4353   85.4769 C.3    1269      M_A    0.0000
   8885 C         254.9867  213.8862   84.8190 C.3    1269      M_A    0.0000
   8886 O         255.9794  214.0503   85.8307 O.3    1269      M_A    0.0000
   8887 H         252.8709  214.0793   85.1339 H      1269      M_A    0.0000
   8888 H         253.7609  213.5407   86.5653 H      1269      M_A    0.0000
   8889 H         254.7988  214.8466   84.3187 H      1269      M_A    0.0000
   8890 H         255.3292  213.1596   84.0701 H      1269      M_A    0.0000
   8891 C         257.1261  213.2824   85.5343 C.3    1270      M_A    0.0000
   8892 C         258.4233  214.0208   85.8400 C.3    1270      M_A    0.0000
   8893 O         259.2848  213.9207   84.7070 O.3    1270      M_A    0.0000
   8894 H         257.0877  212.3641   86.1312 H      1270      M_A    0.0000
   8895 H         257.0966  212.9938   84.4775 H      1270      M_A    0.0000
   8896 H         258.8913  213.5401   86.7107 H      1270      M_A    0.0000
   8897 H         258.2363  215.0764   86.0783 H      1270      M_A    0.0000
   8898 C         260.6347  214.0721   85.0911 C.3    1271      M_A    0.0000
   8899 C         260.8789  215.3456   85.8912 C.3    1271      M_A    0.0000
   8900 O         262.2550  215.7037   85.7725 O.3    1271      M_A    0.0000
   8901 H         260.9169  213.2065   85.7011 H      1271      M_A    0.0000
   8902 H         261.2623  214.0650   84.1927 H      1271      M_A    0.0000
   8903 H         260.6345  215.1389   86.9426 H      1271      M_A    0.0000
   8904 H         260.2440  216.1687   85.5369 H      1271      M_A    0.0000
   8905 C         262.5182  216.2613   84.5027 C.3    1272      M_A    0.0000
   8906 C         263.9237  215.9498   84.0037 C.3    1272      M_A    0.0000
   8907 O         264.8023  216.9888   84.4330 O.3    1272      M_A    0.0000
   8908 H         261.7883  215.8566   83.7924 H      1272      M_A    0.0000
   8909 H         262.3675  217.3456   84.5530 H      1272      M_A    0.0000
   8910 H         263.8944  215.9133   82.9056 H      1272      M_A    0.0000
   8911 H         264.2760  214.9799   84.3795 H      1272      M_A    0.0000
   8912 C         265.0906  216.8621   85.8090 C.3    1273      M_A    0.0000
   8913 C         263.9347  217.3088   86.6955 C.3    1273      M_A    0.0000
   8914 O         264.2141  218.6193   87.1858 O.3    1273      M_A    0.0000
   8915 H         265.3152  215.8098   86.0170 H      1273      M_A    0.0000
   8916 H         265.9893  217.4458   86.0386 H      1273      M_A    0.0000
   8917 H         263.8570  216.6031   87.5345 H      1273      M_A    0.0000
   8918 H         262.9846  217.3078   86.1448 H      1273      M_A    0.0000
   8919 C         264.9246  218.5558   88.4039 C.3    1274      M_A    0.0000
   8920 C         266.4137  218.8279   88.2308 C.3    1274      M_A    0.0000
   8921 O         267.0215  217.6836   87.6332 O.3    1274      M_A    0.0000
   8922 H         264.5016  219.3009   89.0870 H      1274      M_A    0.0000
   8923 H         264.7715  217.5678   88.8530 H      1274      M_A    0.0000
   8924 H         266.8451  219.0049   89.2261 H      1274      M_A    0.0000
   8925 H         266.5885  219.7153   87.6079 H      1274      M_A    0.0000
   8926 C         266.1252  216.5932   87.6173 C.3    1275      M_A    0.0000
   8927 C         266.6868  215.3603   88.3146 C.3    1275      M_A    0.0000
   8928 O         266.0621  214.2005   87.7667 O.3    1275      M_A    0.0000
   8929 H         265.2022  216.9005   88.1218 H      1275      M_A    0.0000
   8930 H         265.8730  216.3562   86.5775 H      1275      M_A    0.0000
   8931 H         266.4552  215.4404   89.3860 H      1275      M_A    0.0000
   8932 H         267.7763  215.2936   88.1934 H      1275      M_A    0.0000
   8933 C         264.8241  213.9544   88.3987 C.3    1276      M_A    0.0000
   8934 C         264.9830  213.4703   89.8346 C.3    1276      M_A    0.0000
   8935 O         265.0075  212.0437   89.8364 O.3    1276      M_A    0.0000
   8936 H         264.2469  214.8860   88.3968 H      1276      M_A    0.0000
   8937 H         264.2663  213.2162   87.8115 H      1276      M_A    0.0000
   8938 H         264.1208  213.8314   90.4127 H      1276      M_A    0.0000
   8939 H         265.9021  213.8630   90.2899 H      1276      M_A    0.0000
   8940 C         264.1755  211.5287   88.8189 C.3    1277      M_A    0.0000
   8941 C         263.5848  210.1699   89.1740 C.3    1277      M_A    0.0000
   8942 O         263.6658  209.3224   88.0290 O.3    1277      M_A    0.0000
   8943 H         263.3596  212.2406   88.6499 H      1277      M_A    0.0000
   8944 H         264.7530  211.4578   87.8902 H      1277      M_A    0.0000
   8945 H         262.5332  210.3194   89.4563 H      1277      M_A    0.0000
   8946 H         264.1151  209.7117   90.0195 H      1277      M_A    0.0000
   8947 C         263.5669  210.0778   86.8406 C.3    1278      M_A    0.0000
   8948 C         262.1238  210.3125   86.4116 C.3    1278      M_A    0.0000
   8949 O         261.4869  209.0478   86.2368 O.3    1278      M_A    0.0000
   8950 H         264.0526  211.0458   87.0079 H      1278      M_A    0.0000
   8951 H         264.1175  209.5623   86.0455 H      1278      M_A    0.0000
   8952 H         262.1370  210.8607   85.4591 H      1278      M_A    0.0000
   8953 H         261.5777  210.9094   87.1544 H      1278      M_A    0.0000
   8954 C         260.5022  208.8434   87.2274 C.3    1279      M_A    0.0000
   8955 C         261.0971  208.4704   88.5796 C.3    1279      M_A    0.0000
   8956 O         261.3917  207.0743   88.5804 O.3    1279      M_A    0.0000
   8957 H         259.9250  209.7689   87.3333 H      1279      M_A    0.0000
   8958 H         259.8152  208.0597   86.8886 H      1279      M_A    0.0000
   8959 H         260.3504  208.6966   89.3537 H      1279      M_A    0.0000
   8960 H         262.0079  209.0473   88.7889 H      1279      M_A    0.0000
   8961 C         260.7217  206.4219   87.5230 C.3    1280      M_A    0.0000
   8962 C         261.6293  205.4756   86.7469 C.3    1280      M_A    0.0000
   8963 O         261.3609  205.6244   85.3535 O.3    1280      M_A    0.0000
   8964 H         259.8873  205.8510   87.9460 H      1280      M_A    0.0000
   8965 H         260.3006  207.1773   86.8499 H      1280      M_A    0.0000
   8966 H         261.4017  204.4486   87.0652 H      1280      M_A    0.0000
   8967 H         262.6888  205.6810   86.9501 H      1280      M_A    0.0000
   8968 C         260.1900  206.3858   85.1490 C.3    1281      M_A    0.0000
   8969 C         260.0508  206.8760   83.7131 C.3    1281      M_A    0.0000
   8970 O         259.3652  208.1273   83.7212 O.3    1281      M_A    0.0000
   8971 H         259.3258  205.7600   85.3990 H      1281      M_A    0.0000
   8972 H         260.1952  207.2371   85.8391 H      1281      M_A    0.0000
   8973 H         259.4660  206.1315   83.1547 H      1281      M_A    0.0000
   8974 H         261.0315  206.9874   83.2314 H      1281      M_A    0.0000
   8975 C         258.0054  207.9495   84.0555 C.3    1282      M_A    0.0000
   8976 C         257.0798  208.8590   83.2570 C.3    1282      M_A    0.0000
   8977 O         256.0012  209.2659   84.0977 O.3    1282      M_A    0.0000
   8978 H         257.7376  206.9051   83.8594 H      1282      M_A    0.0000
   8979 H         257.8773  208.1298   85.1289 H      1282      M_A    0.0000
   8980 H         256.6937  208.2856   82.4025 H      1282      M_A    0.0000
   8981 H         257.6143  209.7402   82.8777 H      1282      M_A    0.0000
   8982 C         256.2192  208.8466   85.4279 C.3    1283      M_A    0.0000
   8983 C         255.1758  209.3922   86.3948 C.3    1283      M_A    0.0000
   8984 O         255.4601  210.7676   86.6465 O.3    1283      M_A    0.0000
   8985 H         256.1908  207.7514   85.4513 H      1283      M_A    0.0000
   8986 H         257.2221  209.1602   85.7390 H      1283      M_A    0.0000
   8987 H         255.2447  208.8179   87.3293 H      1283      M_A    0.0000
   8988 H         254.1605  209.2860   85.9898 H      1283      M_A    0.0000
   8989 C         254.3521  211.4052   87.2452 C.3    1284      M_A    0.0000
   8990 C         254.6193  212.8707   87.5652 C.3    1284      M_A    0.0000
   8991 O         253.8849  213.2246   88.7362 O.3    1284      M_A    0.0000
   8992 H         253.5037  211.3385   86.5548 H      1284      M_A    0.0000
   8993 H         254.0814  210.8631   88.1584 H      1284      M_A    0.0000
   8994 H         254.2775  213.4730   86.7117 H      1284      M_A    0.0000
   8995 H         255.6902  213.0572   87.7220 H      1284      M_A    0.0000
   8996 C         253.5642  214.5993   88.7280 C.3    1285      M_A    0.0000
   8997 C         252.1518  214.8765   89.2277 C.3    1285      M_A    0.0000
   8998 O         251.6017  215.9534   88.4705 O.3    1285      M_A    0.0000
   8999 H         254.2806  215.1225   89.3715 H      1285      M_A    0.0000
   9000 H         253.6868  214.9863   87.7101 H      1285      M_A    0.0000
   9001 H         252.2152  215.1577   90.2883 H      1285      M_A    0.0000
   9002 H         251.5133  213.9876   89.1363 H      1285      M_A    0.0000
   9003 C         251.2308  215.5181   87.1799 C.3    1286      M_A    0.0000
   9004 C         252.1086  216.1109   86.0847 C.3    1286      M_A    0.0000
   9005 O         251.4802  217.2893   85.5823 O.3    1286      M_A    0.0000
   9006 H         251.3104  214.4255   87.1504 H      1286      M_A    0.0000
   9007 H         250.1811  215.7801   87.0049 H      1286      M_A    0.0000
   9008 H         252.2025  215.3650   85.2830 H      1286      M_A    0.0000
   9009 H         253.1117  216.3510   86.4619 H      1286      M_A    0.0000
   9010 C         252.4392  218.1797   85.0529 C.3    1287      M_A    0.0000
   9011 C         251.9382  219.6174   84.9959 C.3    1287      M_A    0.0000
   9012 O         251.4926  219.8944   83.6691 O.3    1287      M_A    0.0000
   9013 H         253.3330  218.1369   85.6856 H      1287      M_A    0.0000
   9014 H         252.7242  217.8396   84.0508 H      1287      M_A    0.0000
   9015 H         252.7755  220.2800   85.2564 H      1287      M_A    0.0000
   9016 H         251.1208  219.7849   85.7100 H      1287      M_A    0.0000
   9017 C         250.1213  220.2294   83.6625 C.3    1288      M_A    0.0000
   9018 C         249.7928  221.3429   82.6759 C.3    1288      M_A    0.0000
   9019 O         248.5581  221.9457   83.0607 O.3    1288      M_A    0.0000
   9020 H         249.5506  219.3333   83.3939 H      1288      M_A    0.0000
   9021 H         249.8228  220.5228   84.6754 H      1288      M_A    0.0000
   9022 H         249.6962  220.8948   81.6770 H      1288      M_A    0.0000
   9023 H         250.5882  222.0997   82.6473 H      1288      M_A    0.0000
   9024 C         247.8527  222.4058   81.9278 C.3    1289      M_A    0.0000
   9025 C         247.4406  223.8679   82.0458 C.3    1289      M_A    0.0000
   9026 O         246.3182  224.0970   81.1952 O.3    1289      M_A    0.0000
   9027 H         248.4975  222.2853   81.0500 H      1289      M_A    0.0000
   9028 H         246.9684  221.7755   81.7802 H      1289      M_A    0.0000
   9029 H         248.2889  224.4875   81.7225 H      1289      M_A    0.0000
   9030 H         247.1873  224.1299   83.0818 H      1289      M_A    0.0000
   9031 C         246.1909  225.4706   80.8955 C.3    1290      M_A    0.0000
   9032 C         244.8375  225.8166   80.2871 C.3    1290      M_A    0.0000
   9033 O         245.0384  226.7454   79.2227 O.3    1290      M_A    0.0000
   9034 H         246.3214  226.0378   81.8241 H      1290      M_A    0.0000
   9035 H         246.9969  225.7610   80.2122 H      1290      M_A    0.0000
   9036 H         244.2186  226.2736   81.0719 H      1290      M_A    0.0000
   9037 H         244.3262  224.9198   79.9124 H      1290      M_A    0.0000
   9038 C         243.8545  226.9073   78.4712 C.3    1291      M_A    0.0000
   9039 C         244.1066  226.9019   76.9686 C.3    1291      M_A    0.0000
   9040 O         243.0886  227.6721   76.3311 O.3    1291      M_A    0.0000
   9041 H         243.1735  226.0864   78.7229 H      1291      M_A    0.0000
   9042 H         243.3704  227.8444   78.7690 H      1291      M_A    0.0000
   9043 H         244.0627  225.8605   76.6201 H      1291      M_A    0.0000
   9044 H         245.0960  227.3130   76.7274 H      1291      M_A    0.0000
   9045 C         242.8118  227.1651   75.0431 C.3    1292      M_A    0.0000
   9046 C         242.4139  228.2549   74.0554 C.3    1292      M_A    0.0000
   9047 O         241.0493  228.0618   73.6861 O.3    1292      M_A    0.0000
   9048 H         243.7102  226.6579   74.6737 H      1292      M_A    0.0000
   9049 H         242.0149  226.4167   75.1200 H      1292      M_A    0.0000
   9050 H         243.0587  228.1633   73.1700 H      1292      M_A    0.0000
   9051 H         242.5487  229.2554   74.4877 H      1292      M_A    0.0000
   9052 C         240.8412  228.4220   72.3372 C.3    1293      M_A    0.0000
   9053 C         240.5233  229.9022   72.1663 C.3    1293      M_A    0.0000
   9054 O         239.1522  230.0358   71.7946 O.3    1293      M_A    0.0000
   9055 H         241.7509  228.1839   71.7743 H      1293      M_A    0.0000
   9056 H         240.0278  227.8119   71.9283 H      1293      M_A    0.0000
   9057 H         241.1682  230.2989   71.3696 H      1293      M_A    0.0000
   9058 H         240.7190  230.4628   73.0902 H      1293      M_A    0.0000
   9059 C         238.8929  231.3323   71.3002 C.3    1294      M_A    0.0000
   9060 C         239.2629  232.4256   72.2947 C.3    1294      M_A    0.0000
   9061 O         238.5984  233.6308   71.9179 O.3    1294      M_A    0.0000
   9062 H         239.4745  231.4719   70.3819 H      1294      M_A    0.0000
   9063 H         237.8317  231.4058   71.0363 H      1294      M_A    0.0000
   9064 H         240.3517  232.5689   72.2532 H      1294      M_A    0.0000
   9065 H         238.9829  232.1461   73.3192 H      1294      M_A    0.0000
   9066 C         239.2622  234.7555   72.4537 C.3    1295      M_A    0.0000
   9067 C         238.3622  235.9816   72.5439 C.3    1295      M_A    0.0000
   9068 O         238.6528  236.8443   71.4452 O.3    1295      M_A    0.0000
   9069 H         239.6178  234.4978   73.4577 H      1295      M_A    0.0000
   9070 H         240.1403  234.9768   71.8364 H      1295      M_A    0.0000
   9071 H         238.5800  236.4944   73.4913 H      1295      M_A    0.0000
   9072 H         237.3007  235.7005   72.5311 H      1295      M_A    0.0000
   9073 C         237.4990  237.5549   71.0496 C.3    1296      M_A    0.0000
   9074 C         236.5163  236.6919   70.2680 C.3    1296      M_A    0.0000
   9075 O         235.7084  237.5410   69.4542 O.3    1296      M_A    0.0000
   9076 H         237.0041  237.9344   71.9506 H      1296      M_A    0.0000
   9077 H         237.8032  238.4190   70.4480 H      1296      M_A    0.0000
   9078 H         235.8861  236.1545   70.9906 H      1296      M_A    0.0000
   9079 H         237.0394  235.9570   69.6415 H      1296      M_A    0.0000
   9080 C         234.5771  236.8453   68.9758 C.3    1297      M_A    0.0000
   9081 C         234.9292  235.4850   68.3868 C.3    1297      M_A    0.0000
   9082 O         233.7810  234.6416   68.4647 O.3    1297      M_A    0.0000
   9083 H         233.8823  236.7045   69.8115 H      1297      M_A    0.0000
   9084 H         234.0726  237.4626   68.2239 H      1297      M_A    0.0000
   9085 H         235.7489  235.0585   68.9819 H      1297      M_A    0.0000
   9086 H         235.2604  235.5742   67.3435 H      1297      M_A    0.0000
   9087 C         233.9762  233.4616   67.7149 C.3    1298      M_A    0.0000
   9088 C         232.8430  232.4587   67.8913 C.3    1298      M_A    0.0000
   9089 O         233.4031  231.1521   68.0133 O.3    1298      M_A    0.0000
   9090 H         234.0499  233.7361   66.6565 H      1298      M_A    0.0000
   9091 H         234.9300  233.0084   68.0082 H      1298      M_A    0.0000
   9092 H         232.2015  232.5101   67.0003 H      1298      M_A    0.0000
   9093 H         232.2362  232.6920   68.7764 H      1298      M_A    0.0000
   9094 C         232.4215  230.2241   68.4230 C.3    1299      M_A    0.0000
   9095 C         232.8760  228.7786   68.2638 C.3    1299      M_A    0.0000
   9096 O         231.7365  227.9264   68.3689 O.3    1299      M_A    0.0000
   9097 H         232.1902  230.4126   69.4775 H      1299      M_A    0.0000
   9098 H         231.5063  230.3974   67.8456 H      1299      M_A    0.0000
   9099 H         233.5874  228.5549   69.0712 H      1299      M_A    0.0000
   9100 H         233.3765  228.6204   67.2992 H      1299      M_A    0.0000
   9101 C         230.9686  227.9713   67.1853 C.3    1300      M_A    0.0000
   9102 C         230.3136  226.6351   66.8584 C.3    1300      M_A    0.0000
   9103 O         231.2462  225.8332   66.1351 O.3    1300      M_A    0.0000
   9104 H         230.1887  228.7310   67.3110 H      1300      M_A    0.0000
   9105 H         231.6118  228.2887   66.3567 H      1300      M_A    0.0000
   9106 H         229.4284  226.8329   66.2376 H      1300      M_A    0.0000
   9107 H         229.9951  226.1119   67.7700 H      1300      M_A    0.0000
   9108 C         231.7465  224.7933   66.9480 C.3    1301      M_A    0.0000
   9109 C         231.2737  223.4164   66.4985 C.3    1301      M_A    0.0000
   9110 O         231.2852  222.5388   67.6235 O.3    1301      M_A    0.0000
   9111 H         232.8413  224.8255   66.9111 H      1301      M_A    0.0000
   9112 H         231.4431  224.9761   67.9851 H      1301      M_A    0.0000
   9113 H         231.9704  223.0513   65.7309 H      1301      M_A    0.0000
   9114 H         230.2650  223.4610   66.0664 H      1301      M_A    0.0000
   9115 C         231.5835  221.2183   67.2237 C.3    1302      M_A    0.0000
   9116 C         230.6371  220.1915   67.8332 C.3    1302      M_A    0.0000
   9117 O         231.4102  219.2022   68.5108 O.3    1302      M_A    0.0000
   9118 H         231.5126  221.1664   66.1313 H      1302      M_A    0.0000
   9119 H         232.6185  220.9886   67.5012 H      1302      M_A    0.0000
   9120 H         230.0669  219.7274   67.0163 H      1302      M_A    0.0000
   9121 H         229.9324  220.6620   68.5320 H      1302      M_A    0.0000
   9122 C         230.6503  218.5845   69.5275 C.3    1303      M_A    0.0000
   9123 C         231.1224  217.1692   69.8367 C.3    1303      M_A    0.0000
   9124 O         230.0352  216.2687   69.6295 O.3    1303      M_A    0.0000
   9125 H         230.7303  219.1947   70.4342 H      1303      M_A    0.0000
   9126 H         229.5968  218.5731   69.2259 H      1303      M_A    0.0000
   9127 H         231.4395  217.1387   70.8886 H      1303      M_A    0.0000
   9128 H         231.9732  216.8839   69.2036 H      1303      M_A    0.0000
   9129 C         230.3971  214.9554   69.9993 C.3    1304      M_A    0.0000
   9130 C         231.5676  214.4170   69.1859 C.3    1304      M_A    0.0000
   9131 O         231.5720  212.9932   69.2775 O.3    1304      M_A    0.0000
   9132 H         230.6711  214.9610   71.0604 H      1304      M_A    0.0000
   9133 H         229.5254  214.3012   69.8843 H      1304      M_A    0.0000
   9134 H         232.4948  214.8233   69.6141 H      1304      M_A    0.0000
   9135 H         231.4999  214.7262   68.1343 H      1304      M_A    0.0000
   9136 C         230.2563  212.4850   69.2193 C.3    1305      M_A    0.0000
   9137 C         230.1255  211.1155   69.8742 C.3    1305      M_A    0.0000
   9138 O         229.4140  210.2513   68.9894 O.3    1305      M_A    0.0000
   9139 H         229.5928  213.1913   69.7310 H      1305      M_A    0.0000
   9140 H         229.9420  212.4331   68.1707 H      1305      M_A    0.0000
   9141 H         229.5637  211.2386   70.8107 H      1305      M_A    0.0000
   9142 H         231.1098  210.6877   70.1072 H      1305      M_A    0.0000
   9143 C         229.0121  209.0743   69.6570 C.3    1306      M_A    0.0000
   9144 C         229.9123  207.8851   69.3455 C.3    1306      M_A    0.0000
   9145 O         229.3384  206.7133   69.9227 O.3    1306      M_A    0.0000
   9146 H         229.0341  209.2671   70.7355 H      1306      M_A    0.0000
   9147 H         227.9763  208.8457   69.3810 H      1306      M_A    0.0000
   9148 H         230.8980  208.0787   69.7914 H      1306      M_A    0.0000
   9149 H         230.0357  207.7495   68.2627 H      1306      M_A    0.0000
   9150 C         230.2928  205.6761   70.0004 C.3    1307      M_A    0.0000
   9151 C         230.4106  205.0893   71.4015 C.3    1307      M_A    0.0000
   9152 O         231.5162  204.1878   71.4286 O.3    1307      M_A    0.0000
   9153 H         229.9956  204.8837   69.3042 H      1307      M_A    0.0000
   9154 H         231.2640  206.0620   69.6703 H      1307      M_A    0.0000
   9155 H         229.4799  204.5482   71.6230 H      1307      M_A    0.0000
   9156 H         230.5485  205.8765   72.1548 H      1307      M_A    0.0000
   9157 C         231.5497  203.4033   70.2555 C.3    1308      M_A    0.0000
   9158 C         231.6851  201.9141   70.5477 C.3    1308      M_A    0.0000
   9159 O         232.8205  201.4113   69.8450 O.3    1308      M_A    0.0000
   9160 H         230.6206  203.5761   69.7006 H      1308      M_A    0.0000
   9161 H         232.3809  203.7412   69.6261 H      1308      M_A    0.0000
   9162 H         230.7729  201.4137   70.1936 H      1308      M_A    0.0000
   9163 H         231.7952  201.7260   71.6241 H      1308      M_A    0.0000
   9164 C         233.4053  200.3347   70.5462 C.3    1309      M_A    0.0000
   9165 C         233.1621  198.9913   69.8699 C.3    1309      M_A    0.0000
   9166 O         233.0774  197.9819   70.8747 O.3    1309      M_A    0.0000
   9167 H         234.4847  200.5130   70.6103 H      1309      M_A    0.0000
   9168 H         233.0093  200.3198   71.5679 H      1309      M_A    0.0000
   9169 H         234.0120  198.7871   69.2036 H      1309      M_A    0.0000
   9170 H         232.2409  199.0052   69.2720 H      1309      M_A    0.0000
   9171 C         234.3468  197.4161   71.1223 C.3    1310      M_A    0.0000
   9172 C         234.3326  195.8935   71.0683 C.3    1310      M_A    0.0000
   9173 O         235.4100  195.3975   71.8614 O.3    1310      M_A    0.0000
   9174 H         235.0444  197.7946   70.3666 H      1310      M_A    0.0000
   9175 H         234.7016  197.7554   72.1022 H      1310      M_A    0.0000
   9176 H         234.4668  195.5891   70.0208 H      1310      M_A    0.0000
   9177 H         233.3792  195.4891   71.4336 H      1310      M_A    0.0000
   9178 C         235.9401  194.2156   71.3004 C.3    1311      M_A    0.0000
   9179 C         234.8582  193.2543   70.8241 C.3    1311      M_A    0.0000
   9180 O         235.3114  191.9171   71.0298 O.3    1311      M_A    0.0000
   9181 H         236.5721  194.4933   70.4494 H      1311      M_A    0.0000
   9182 H         236.5793  193.7256   72.0437 H      1311      M_A    0.0000
   9183 H         234.6920  193.4333   69.7525 H      1311      M_A    0.0000
   9184 H         233.9135  193.4179   71.3596 H      1311      M_A    0.0000
   9185 C         234.2364  191.0748   71.3871 C.3    1312      M_A    0.0000
   9186 C         234.5798  190.1405   72.5406 C.3    1312      M_A    0.0000
   9187 O         234.9627  188.8745   72.0054 O.3    1312      M_A    0.0000
   9188 H         233.3885  191.7054   71.6775 H      1312      M_A    0.0000
   9189 H         233.9335  190.4939   70.5085 H      1312      M_A    0.0000
   9190 H         233.6827  190.0277   73.1655 H      1312      M_A    0.0000
   9191 H         235.3908  190.5487   73.1583 H      1312      M_A    0.0000
   9192 C         234.6564  187.8361   72.9113 C.3    1313      M_A    0.0000
   9193 C         235.6880  186.7150   72.8911 C.3    1313      M_A    0.0000
   9194 O         235.2072  185.6364   73.6920 O.3    1313      M_A    0.0000
   9195 H         234.6112  188.2628   73.9196 H      1313      M_A    0.0000
   9196 H         233.6631  187.4389   72.6732 H      1313      M_A    0.0000
   9197 H         236.6244  187.1068   73.3127 H      1313      M_A    0.0000
   9198 H         235.8807  186.3668   71.8675 H      1313      M_A    0.0000
   9199 C         236.2661  184.7805   74.0646 C.3    1314      M_A    0.0000
   9200 C         235.8439  183.3181   74.1325 C.3    1314      M_A    0.0000
   9201 O         236.8564  182.5808   74.8159 O.3    1314      M_A    0.0000
   9202 H         237.0693  184.8872   73.3268 H      1314      M_A    0.0000
   9203 H         236.6600  185.1047   75.0345 H      1314      M_A    0.0000
   9204 H         235.7388  182.9462   73.1036 H      1314      M_A    0.0000
   9205 H         234.8814  183.2031   74.6489 H      1314      M_A    0.0000
   9206 C         237.1708  181.3966   74.1149 C.3    1315      M_A    0.0000
   9207 C         238.6720  181.1758   73.9773 C.3    1315      M_A    0.0000
   9208 O         238.8978  179.8487   73.5042 O.3    1315      M_A    0.0000
   9209 H         236.7327  180.5507   74.6567 H      1315      M_A    0.0000
   9210 H         236.7030  181.4355   73.1245 H      1315      M_A    0.0000
   9211 H         239.1268  181.3027   74.9697 H      1315      M_A    0.0000
   9212 H         239.1218  181.9026   73.2878 H      1315      M_A    0.0000
   9213 C         239.0469  179.8375   72.1006 C.3    1316      M_A    0.0000
   9214 C         237.7584  179.4700   71.3754 C.3    1316      M_A    0.0000
   9215 O         237.7778  178.0725   71.0879 O.3    1316      M_A    0.0000
   9216 H         239.3649  180.8365   71.7814 H      1316      M_A    0.0000
   9217 H         239.8436  179.1338   71.8339 H      1316      M_A    0.0000
   9218 H         237.7189  180.0449   70.4395 H      1316      M_A    0.0000
   9219 H         236.8749  179.7177   71.9788 H      1316      M_A    0.0000
   9220 C         238.3979  177.8272   69.8437 C.3    1317      M_A    0.0000
   9221 C         237.6582  178.4757   68.6802 C.3    1317      M_A    0.0000
   9222 O         237.2368  177.4529   67.7789 O.3    1317      M_A    0.0000
   9223 H         239.4185  178.2242   69.8849 H      1317      M_A    0.0000
   9224 H         238.4680  176.7444   69.6895 H      1317      M_A    0.0000
   9225 H         238.3540  179.1589   68.1733 H      1317      M_A    0.0000
   9226 H         236.7902  179.0511   69.0287 H      1317      M_A    0.0000
   9227 C         237.3328  177.8950   66.4418 C.3    1318      M_A    0.0000
   9228 C         236.0796  177.5906   65.6305 C.3    1318      M_A    0.0000
   9229 O         236.4680  176.9835   64.3991 O.3    1318      M_A    0.0000
   9230 H         237.4998  178.9780   66.4497 H      1318      M_A    0.0000
   9231 H         238.2071  177.4270   65.9751 H      1318      M_A    0.0000
   9232 H         235.5627  178.5404   65.4339 H      1318      M_A    0.0000
   9233 H         235.3991  176.9260   66.1795 H      1318      M_A    0.0000
   9234 C         235.3971  176.9905   63.4793 C.3    1319      M_A    0.0000
   9235 C         235.8372  177.3569   62.0674 C.3    1319      M_A    0.0000
   9236 O         234.6932  177.7791   61.3266 O.3    1319      M_A    0.0000
   9237 H         234.9494  175.9904   63.4665 H      1319      M_A    0.0000
   9238 H         234.6325  177.6929   63.8302 H      1319      M_A    0.0000
   9239 H         236.2744  176.4612   61.6042 H      1319      M_A    0.0000
   9240 H         236.5936  178.1532   62.0780 H      1319      M_A    0.0000
   9241 C         234.1591  176.7075   60.5790 C.3    1320      M_A    0.0000
   9242 C         233.8685  177.0872   59.1323 C.3    1320      M_A    0.0000
   9243 O         233.6521  175.8938   58.3807 O.3    1320      M_A    0.0000
   9244 H         234.8822  175.8842   60.5947 H      1320      M_A    0.0000
   9245 H         233.2435  176.3554   61.0676 H      1320      M_A    0.0000
   9246 H         234.7431  177.6245   58.7394 H      1320      M_A    0.0000
   9247 H         232.9901  177.7424   59.0592 H      1320      M_A    0.0000
   9248 C         233.6357  174.7655   59.2288 C.3    1321      M_A    0.0000
   9249 C         234.8131  174.7395   60.1955 C.3    1321      M_A    0.0000
   9250 O         235.2367  173.3875   60.3643 O.3    1321      M_A    0.0000
   9251 H         232.7020  174.7811   59.8023 H      1321      M_A    0.0000
   9252 H         233.6331  173.8588   58.6133 H      1321      M_A    0.0000
   9253 H         234.4729  175.1489   61.1571 H      1321      M_A    0.0000
   9254 H         235.6470  175.3519   59.8270 H      1321      M_A    0.0000
   9255 C         235.9519  172.9431   59.2314 C.3    1322      M_A    0.0000
   9256 C         235.7965  171.4471   58.9877 C.3    1322      M_A    0.0000
   9257 O         236.7989  170.7558   59.7314 O.3    1322      M_A    0.0000
   9258 H         235.5814  173.4887   58.3561 H      1322      M_A    0.0000
   9259 H         237.0105  173.1966   59.3579 H      1322      M_A    0.0000
   9260 H         235.9322  171.2617   57.9129 H      1322      M_A    0.0000
   9261 H         234.7991  171.0950   59.2830 H      1322      M_A    0.0000
   9262 C         236.3535  169.4654   60.0904 C.3    1323      M_A    0.0000
   9263 C         235.2574  169.4949   61.1483 C.3    1323      M_A    0.0000
   9264 O         234.9993  168.1587   61.5772 O.3    1323      M_A    0.0000
   9265 H         235.9690  168.9725   59.1903 H      1323      M_A    0.0000
   9266 H         237.2088  168.8818   60.4497 H      1323      M_A    0.0000
   9267 H         234.3545  169.9230   60.6908 H      1323      M_A    0.0000
   9268 H         235.5463  170.1163   62.0065 H      1323      M_A    0.0000
   9269 C         235.6341  167.2294   60.7251 C.3    1324      M_A    0.0000
   9270 C         234.9968  165.8467   60.7845 C.3    1324      M_A    0.0000
   9271 O         236.0331  164.8664   60.8189 O.3    1324      M_A    0.0000
   9272 H         235.5729  167.6079   59.6985 H      1324      M_A    0.0000
   9273 H         236.6946  167.1677   60.9944 H      1324      M_A    0.0000
   9274 H         234.3855  165.7148   59.8807 H      1324      M_A    0.0000
   9275 H         234.3502  165.7417   61.6659 H      1324      M_A    0.0000
   9276 C         235.5273  163.5931   60.4789 C.3    1325      M_A    0.0000
   9277 C         235.4875  162.6400   61.6669 C.3    1325      M_A    0.0000
   9278 O         235.2672  161.3156   61.1838 O.3    1325      M_A    0.0000
   9279 H         234.5115  163.7206   60.0881 H      1325      M_A    0.0000
   9280 H         236.1420  163.1698   59.6763 H      1325      M_A    0.0000
   9281 H         234.6570  162.9442   62.3194 H      1325      M_A    0.0000
   9282 H         236.4214  162.6797   62.2433 H      1325      M_A    0.0000
   9283 C         236.4429  160.7944   60.6017 C.3    1326      M_A    0.0000
   9284 C         236.1815  159.5495   59.7629 C.3    1326      M_A    0.0000
   9285 O         236.1771  158.4110   60.6229 O.3    1326      M_A    0.0000
   9286 H         236.8828  161.5697   59.9642 H      1326      M_A    0.0000
   9287 H         237.1628  160.5692   61.3966 H      1326      M_A    0.0000
   9288 H         236.9919  159.4598   59.0259 H      1326      M_A    0.0000
   9289 H         235.2249  159.6209   59.2282 H      1326      M_A    0.0000
   9290 C         234.9803  158.3536   61.3693 C.3    1327      M_A    0.0000
   9291 C         234.1783  157.0869   61.0977 C.3    1327      M_A    0.0000
   9292 O         232.9010  157.2117   61.7212 O.3    1327      M_A    0.0000
   9293 H         235.2377  158.3929   62.4337 H      1327      M_A    0.0000
   9294 H         234.3763  159.2388   61.1401 H      1327      M_A    0.0000
   9295 H         234.7259  156.2382   61.5309 H      1327      M_A    0.0000
   9296 H         234.0557  156.9143   60.0200 H      1327      M_A    0.0000
   9297 C         232.3462  155.9401   61.9816 C.3    1328      M_A    0.0000
   9298 C         231.3111  155.9680   63.0993 C.3    1328      M_A    0.0000
   9299 O         231.6910  155.0229   64.0985 O.3    1328      M_A    0.0000
   9300 H         231.8711  155.5784   61.0627 H      1328      M_A    0.0000
   9301 H         233.1549  155.2448   62.2339 H      1328      M_A    0.0000
   9302 H         230.3388  155.6890   62.6695 H      1328      M_A    0.0000
   9303 H         231.2266  156.9697   63.5416 H      1328      M_A    0.0000
   9304 C         230.5812  154.6630   64.8932 C.3    1329      M_A    0.0000
   9305 C         230.9295  154.5487   66.3720 C.3    1329      M_A    0.0000
   9306 O         230.1468  153.5033   66.9470 O.3    1329      M_A    0.0000
   9307 H         229.8060  155.4270   64.7660 H      1329      M_A    0.0000
   9308 H         230.1755  153.7131   64.5268 H      1329      M_A    0.0000
   9309 H         230.6875  155.5066   66.8535 H      1329      M_A    0.0000
   9310 H         231.9983  154.3416   66.5166 H      1329      M_A    0.0000
   9311 C         230.5025  152.2529   66.3968 C.3    1330      M_A    0.0000
   9312 C         229.2953  151.3613   66.1342 C.3    1330      M_A    0.0000
   9313 O         229.4391  150.1613   66.8927 O.3    1330      M_A    0.0000
   9314 H         231.0284  152.4309   65.4520 H      1330      M_A    0.0000
   9315 H         231.2007  151.7516   67.0769 H      1330      M_A    0.0000
   9316 H         229.2731  151.1262   65.0608 H      1330      M_A    0.0000
   9317 H         228.3583  151.8668   66.4038 H      1330      M_A    0.0000
   9318 C         228.1766  149.6536   67.2683 C.3    1331      M_A    0.0000
   9319 C         228.1560  148.1325   67.3526 C.3    1331      M_A    0.0000
   9320 O         226.8531  147.6721   66.9972 O.3    1331      M_A    0.0000
   9321 H         227.9172  150.0700   68.2482 H      1331      M_A    0.0000
   9322 H         227.4260  150.0016   66.5496 H      1331      M_A    0.0000
   9323 H         228.3853  147.8461   68.3887 H      1331      M_A    0.0000
   9324 H         228.9074  147.6847   66.6886 H      1331      M_A    0.0000
   9325 C         226.5256  146.4996   67.7118 C.3    1332      M_A    0.0000
   9326 C         227.3619  145.2991   67.2866 C.3    1332      M_A    0.0000
   9327 O         226.6667  144.1064   67.6472 O.3    1332      M_A    0.0000
   9328 H         226.6899  146.6908   68.7782 H      1332      M_A    0.0000
   9329 H         225.4599  146.2851   67.5725 H      1332      M_A    0.0000
   9330 H         228.3227  145.3485   67.8181 H      1332      M_A    0.0000
   9331 H         227.5561  145.3093   66.2058 H      1332      M_A    0.0000
   9332 C         225.9621  144.2856   68.8572 C.3    1333      M_A    0.0000
   9333 C         226.0457  143.0698   69.7717 C.3    1333      M_A    0.0000
   9334 O         224.9963  142.1661   69.4286 O.3    1333      M_A    0.0000
   9335 H         226.3857  145.1532   69.3755 H      1333      M_A    0.0000
   9336 H         224.9150  144.5135   68.6278 H      1333      M_A    0.0000
   9337 H         225.9203  143.4143   70.8078 H      1333      M_A    0.0000
   9338 H         227.0186  142.5680   69.6824 H      1333      M_A    0.0000
   9339 C         225.2255  140.8951   69.9985 C.3    1334      M_A    0.0000
   9340 C         226.4011  140.1672   69.3586 C.3    1334      M_A    0.0000
   9341 O         226.0967  138.7747   69.2938 O.3    1334      M_A    0.0000
   9342 H         225.4267  141.0297   71.0674 H      1334      M_A    0.0000
   9343 H         224.3137  140.2944   69.9046 H      1334      M_A    0.0000
   9344 H         227.2858  140.3288   69.9903 H      1334      M_A    0.0000
   9345 H         226.6112  140.5536   68.3523 H      1334      M_A    0.0000
   9346 C         225.1523  138.4235   70.2825 C.3    1335      M_A    0.0000
   9347 C         225.4017  137.0393   70.8683 C.3    1335      M_A    0.0000
   9348 O         224.6889  136.0783   70.0910 O.3    1335      M_A    0.0000
   9349 H         225.2043  139.1669   71.0860 H      1335      M_A    0.0000
   9350 H         224.1477  138.4735   69.8475 H      1335      M_A    0.0000
   9351 H         225.0297  137.0355   71.9025 H      1335      M_A    0.0000
   9352 H         226.4725  136.7958   70.8780 H      1335      M_A    0.0000
   9353 C         225.5320  135.4977   69.1190 C.3    1336      M_A    0.0000
   9354 C         225.6815  133.9916   69.2946 C.3    1336      M_A    0.0000
   9355 O         227.0610  133.6507   69.1655 O.3    1336      M_A    0.0000
   9356 H         225.1069  135.7023   68.1299 H      1336      M_A    0.0000
   9357 H         226.5139  135.9822   69.1659 H      1336      M_A    0.0000
   9358 H         225.0976  133.4975   68.5054 H      1336      M_A    0.0000
   9359 H         225.3026  133.6631   70.2716 H      1336      M_A    0.0000
   9360 C         227.2076  132.3805   68.5673 C.3    1337      M_A    0.0000
   9361 C         226.2271  131.3537   69.1201 C.3    1337      M_A    0.0000
   9362 O         226.9406  130.1549   69.4198 O.3    1337      M_A    0.0000
   9363 H         227.0433  132.4881   67.4892 H      1337      M_A    0.0000
   9364 H         228.2375  132.0357   68.7141 H      1337      M_A    0.0000
   9365 H         225.4699  131.1565   68.3483 H      1337      M_A    0.0000
   9366 H         225.7228  131.7267   70.0216 H      1337      M_A    0.0000
   9367 C         226.0611  129.0524   69.4812 C.3    1338      M_A    0.0000
   9368 C         226.7303  127.7961   70.0245 C.3    1338      M_A    0.0000
   9369 O         226.2015  126.6626   69.3378 O.3    1338      M_A    0.0000
   9370 H         225.2205  129.3200   70.1314 H      1338      M_A    0.0000
   9371 H         225.6595  128.8626   68.4793 H      1338      M_A    0.0000
   9372 H         226.5011  127.7254   71.0971 H      1338      M_A    0.0000
   9373 H         227.8205  127.8372   69.8989 H      1338      M_A    0.0000
   9374 C         226.0976  125.5556   70.2075 C.3    1339      M_A    0.0000
   9375 C         226.0780  124.2250   69.4656 C.3    1339      M_A    0.0000
   9376 O         224.7282  123.9100   69.1266 O.3    1339      M_A    0.0000
   9377 H         226.9558  125.5729   70.8888 H      1339      M_A    0.0000
   9378 H         225.1902  125.6635   70.8126 H      1339      M_A    0.0000
   9379 H         226.4856  123.4555   70.1363 H      1339      M_A    0.0000
   9380 H         226.6947  124.2638   68.5577 H      1339      M_A    0.0000
   9381 C         224.5943  122.5353   68.8354 C.3    1340      M_A    0.0000
   9382 C         224.5480  122.2531   67.3389 C.3    1340      M_A    0.0000
   9383 O         223.2908  121.6561   67.0245 O.3    1340      M_A    0.0000
   9384 H         225.4490  122.0071   69.2731 H      1340      M_A    0.0000
   9385 H         223.6864  122.1569   69.3187 H      1340      M_A    0.0000
   9386 H         225.3642  121.5573   67.0986 H      1340      M_A    0.0000
   9387 H         224.6848  123.1724   66.7539 H      1340      M_A    0.0000
   9388 C         223.4236  120.7477   65.9522 C.3    1341      M_A    0.0000
   9389 C         222.2288  119.8110   65.8238 C.3    1341      M_A    0.0000
   9390 O         222.7041  118.5044   65.5034 O.3    1341      M_A    0.0000
   9391 H         223.5282  121.3235   65.0257 H      1341      M_A    0.0000
   9392 H         224.3438  120.1685   66.0896 H      1341      M_A    0.0000
   9393 H         221.5880  120.1862   65.0136 H      1341      M_A    0.0000
   9394 H         221.6424  119.7809   66.7519 H      1341      M_A    0.0000
   9395 C         223.1790  117.8483   66.6595 C.3    1342      M_A    0.0000
   9396 C         223.6361  116.4219   66.3801 C.3    1342      M_A    0.0000
   9397 O         222.7751  115.5211   67.0752 O.3    1342      M_A    0.0000
   9398 H         224.0228  118.4230   67.0578 H      1342      M_A    0.0000
   9399 H         222.3882  117.8491   67.4182 H      1342      M_A    0.0000
   9400 H         224.6660  116.3164   66.7490 H      1342      M_A    0.0000
   9401 H         223.6225  116.2009   65.3044 H      1342      M_A    0.0000
   9402 C         223.4005  114.2679   67.2509 C.3    1343      M_A    0.0000
   9403 C         222.6684  113.1399   66.5346 C.3    1343      M_A    0.0000
   9404 O         222.9314  111.9162   67.2196 O.3    1343      M_A    0.0000
   9405 H         224.4221  114.3366   66.8601 H      1343      M_A    0.0000
   9406 H         223.4683  114.0523   68.3232 H      1343      M_A    0.0000
   9407 H         223.0525  113.0842   65.5063 H      1343      M_A    0.0000
   9408 H         221.5866  113.3253   66.4972 H      1343      M_A    0.0000
   9409 C         222.2316  110.8474   66.6190 C.3    1344      M_A    0.0000
   9410 C         221.7201  109.8345   67.6358 C.3    1344      M_A    0.0000
   9411 O         221.8648  108.5245   67.0893 O.3    1344      M_A    0.0000
   9412 H         221.3804  111.2618   66.0672 H      1344      M_A    0.0000
   9413 H         222.8900  110.3548   65.8944 H      1344      M_A    0.0000
   9414 H         220.6583  110.0475   67.8234 H      1344      M_A    0.0000
   9415 H         222.2676  109.9089   68.5849 H      1344      M_A    0.0000
   9416 C         221.1098  107.5887   67.8287 C.3    1345      M_A    0.0000
   9417 C         221.9568  106.4401   68.3623 C.3    1345      M_A    0.0000
   9418 O         221.5124  105.2255   67.7597 O.3    1345      M_A    0.0000
   9419 H         220.6451  108.1124   68.6717 H      1345      M_A    0.0000
   9420 H         220.3053  107.2007   67.1937 H      1345      M_A    0.0000
   9421 H         221.8169  106.3916   69.4513 H      1345      M_A    0.0000
   9422 H         223.0229  106.5971   68.1505 H      1345      M_A    0.0000
   9423 C         221.9286  104.1102   68.5183 C.3    1346      M_A    0.0000
   9424 C         223.4055  104.1689   68.8883 C.3    1346      M_A    0.0000
   9425 O         224.0929  103.1293   68.1936 O.3    1346      M_A    0.0000
   9426 H         221.3307  104.0772   69.4361 H      1346      M_A    0.0000
   9427 H         221.7180  103.1965   67.9509 H      1346      M_A    0.0000
   9428 H         223.4907  104.0151   69.9732 H      1346      M_A    0.0000
   9429 H         223.8430  105.1439   68.6350 H      1346      M_A    0.0000
   9430 C         225.4752  103.1687   68.4769 C.3    1347      M_A    0.0000
   9431 C         226.2960  102.3126   67.5204 C.3    1347      M_A    0.0000
   9432 O         227.5567  102.0304   68.1260 O.3    1347      M_A    0.0000
   9433 H         225.8108  104.2093   68.4037 H      1347      M_A    0.0000
   9434 H         225.6353  102.8393   69.5098 H      1347      M_A    0.0000
   9435 H         226.4446  102.8848   66.5939 H      1347      M_A    0.0000
   9436 H         225.7775  101.3756   67.2767 H      1347      M_A    0.0000
   9437 C         227.5269  100.7809   68.7821 C.3    1348      M_A    0.0000
   9438 C         228.7300  100.5658   69.6919 C.3    1348      M_A    0.0000
   9439 O         229.4932   99.4697   69.1898 O.3    1348      M_A    0.0000
   9440 H         226.6111  100.7301   69.3818 H      1348      M_A    0.0000
   9441 H         227.4764   99.9859   68.0295 H      1348      M_A    0.0000
   9442 H         228.3574  100.3332   70.6993 H      1348      M_A    0.0000
   9443 H         229.3562  101.4663   69.7469 H      1348      M_A    0.0000
   9444 C         230.4855   99.0857   70.1174 C.3    1349      M_A    0.0000
   9445 C         231.5590   98.2002   69.4970 C.3    1349      M_A    0.0000
   9446 O         231.2653   96.8390   69.8080 O.3    1349      M_A    0.0000
   9447 H         230.9549   99.9935   70.5130 H      1349      M_A    0.0000
   9448 H         230.0064   98.5667   70.9553 H      1349      M_A    0.0000
   9449 H         232.5275   98.4838   69.9325 H      1349      M_A    0.0000
   9450 H         231.6090   98.3351   68.4083 H      1349      M_A    0.0000
   9451 C         231.9030   95.9698   68.8967 C.3    1350      M_A    0.0000
   9452 C         231.0808   94.7215   68.6013 C.3    1350      M_A    0.0000
   9453 O         231.9582   93.5975   68.5492 O.3    1350      M_A    0.0000
   9454 H         232.0721   96.5165   67.9622 H      1350      M_A    0.0000
   9455 H         232.8827   95.6893   69.3001 H      1350      M_A    0.0000
   9456 H         230.5903   94.8599   67.6276 H      1350      M_A    0.0000
   9457 H         230.3086   94.5609   69.3654 H      1350      M_A    0.0000
   9458 C         231.3161   92.4900   67.9542 C.3    1351      M_A    0.0000
   9459 C         231.5850   91.1864   68.6957 C.3    1351      M_A    0.0000
   9460 O         232.5313   90.4225   67.9495 O.3    1351      M_A    0.0000
   9461 H         230.2372   92.6820   67.9474 H      1351      M_A    0.0000
   9462 H         231.6457   92.4062   66.9124 H      1351      M_A    0.0000
   9463 H         230.6363   90.6369   68.7724 H      1351      M_A    0.0000
   9464 H         231.9669   91.3734   69.7082 H      1351      M_A    0.0000
   9465 C         233.0028   89.3309   68.7103 C.3    1352      M_A    0.0000
   9466 C         234.1291   88.5742   68.0173 C.3    1352      M_A    0.0000
   9467 O         234.1774   87.2471   68.5390 O.3    1352      M_A    0.0000
   9468 H         233.3666   89.7137   69.6705 H      1352      M_A    0.0000
   9469 H         232.1657   88.6546   68.9173 H      1352      M_A    0.0000
   9470 H         235.0721   89.0962   68.2320 H      1352      M_A    0.0000
   9471 H         233.9818   88.5456   66.9294 H      1352      M_A    0.0000
   9472 C         232.9340   86.5997   68.3732 C.3    1353      M_A    0.0000
   9473 C         232.9213   85.1926   68.9573 C.3    1353      M_A    0.0000
   9474 O         233.3793   84.2795   67.9612 O.3    1353      M_A    0.0000
   9475 H         232.1651   87.2011   68.8714 H      1353      M_A    0.0000
   9476 H         232.6906   86.5669   67.3052 H      1353      M_A    0.0000
   9477 H         231.8871   84.9511   69.2403 H      1353      M_A    0.0000
   9478 H         233.5563   85.1244   69.8508 H      1353      M_A    0.0000
   9479 C         234.7418   83.9675   68.1585 C.3    1354      M_A    0.0000
   9480 C         235.0976   82.5631   67.6866 C.3    1354      M_A    0.0000
   9481 O         236.3323   82.1773   68.2885 O.3    1354      M_A    0.0000
   9482 H         235.3442   84.6951   67.6030 H      1354      M_A    0.0000
   9483 H         234.9813   84.0799   69.2220 H      1354      M_A    0.0000
   9484 H         235.2053   82.5888   66.5931 H      1354      M_A    0.0000
   9485 H         234.3108   81.8423   67.9465 H      1354      M_A    0.0000
   9486 C         237.0318   81.2745   67.4588 C.3    1355      M_A    0.0000
   9487 C         238.1352   80.5294   68.1995 C.3    1355      M_A    0.0000
   9488 O         239.2665   80.4127   67.3379 O.3    1355      M_A    0.0000
   9489 H         236.3143   80.5482   67.0607 H      1355      M_A    0.0000
   9490 H         237.4529   81.8257   66.6103 H      1355      M_A    0.0000
   9491 H         237.7565   79.5307   68.4587 H      1355      M_A    0.0000
   9492 H         238.4185   81.0499   69.1241 H      1355      M_A    0.0000
   9493 C         240.1764   79.4549   67.8354 C.3    1356      M_A    0.0000
   9494 C         241.6104   79.7222   67.3955 C.3    1356      M_A    0.0000
   9495 O         242.3615   78.5161   67.5262 O.3    1356      M_A    0.0000
   9496 H         240.1286   79.4725   68.9301 H      1356      M_A    0.0000
   9497 H         239.8598   78.4592   67.5045 H      1356      M_A    0.0000
   9498 H         242.0288   80.4977   68.0525 H      1356      M_A    0.0000
   9499 H         241.6506   80.0799   66.3580 H      1356      M_A    0.0000
   9500 C         242.6846   78.2732   68.8787 C.3    1357      M_A    0.0000
   9501 C         244.0153   77.5498   69.0444 C.3    1357      M_A    0.0000
   9502 O         243.7726   76.1438   69.0619 O.3    1357      M_A    0.0000
   9503 H         242.7341   79.2369   69.3980 H      1357      M_A    0.0000
   9504 H         241.8783   77.6893   69.3369 H      1357      M_A    0.0000
   9505 H         244.4577   77.8659   69.9995 H      1357      M_A    0.0000
   9506 H         244.7113   77.8014   68.2330 H      1357      M_A    0.0000
   9507 C         244.2965   75.5322   67.9025 C.3    1358      M_A    0.0000
   9508 C         243.9614   74.0482   67.8182 C.3    1358      M_A    0.0000
   9509 O         245.1684   73.2985   67.9484 O.3    1358      M_A    0.0000
   9510 H         243.8803   76.0434   67.0271 H      1358      M_A    0.0000
   9511 H         245.3830   75.6750   67.8860 H      1358      M_A    0.0000
   9512 H         243.5056   73.8577   66.8365 H      1358      M_A    0.0000
   9513 H         243.2493   73.7537   68.6007 H      1358      M_A    0.0000
   9514 C         244.8874   71.9263   68.1241 C.3    1359      M_A    0.0000
   9515 C         244.2330   71.6275   69.4672 C.3    1359      M_A    0.0000
   9516 O         244.1739   70.2128   69.6427 O.3    1359      M_A    0.0000
   9517 H         244.2148   71.6082   67.3195 H      1359      M_A    0.0000
   9518 H         245.8188   71.3576   68.0236 H      1359      M_A    0.0000
   9519 H         243.2170   72.0463   69.4512 H      1359      M_A    0.0000
   9520 H         244.7904   72.0863   70.2948 H      1359      M_A    0.0000
   9521 C         245.4341   69.6260   69.3972 C.3    1360      M_A    0.0000
   9522 C         245.3379   68.1399   69.0753 C.3    1360      M_A    0.0000
   9523 O         246.2487   67.4303   69.9137 O.3    1360      M_A    0.0000
   9524 H         245.8957   70.1465   68.5505 H      1360      M_A    0.0000
   9525 H         246.0746   69.7816   70.2727 H      1360      M_A    0.0000
   9526 H         245.6137   68.0018   68.0204 H      1360      M_A    0.0000
   9527 H         244.3172   67.7632   69.2250 H      1360      M_A    0.0000
   9528 C         245.9220   66.0576   69.9566 C.3    1361      M_A    0.0000
   9529 C         246.7739   65.2815   70.9533 C.3    1361      M_A    0.0000
   9530 O         246.7117   63.8942   70.6255 O.3    1361      M_A    0.0000
   9531 H         244.8672   65.9647   70.2386 H      1361      M_A    0.0000
   9532 H         246.0366   65.6340   68.9524 H      1361      M_A    0.0000
   9533 H         246.3595   65.4486   71.9575 H      1361      M_A    0.0000
   9534 H         247.8170   65.6247   70.9408 H      1361      M_A    0.0000
   9535 C         247.5217   63.1378   71.4999 C.3    1362      M_A    0.0000
   9536 C         247.1990   61.6493   71.4602 C.3    1362      M_A    0.0000
   9537 O         246.7849   61.2360   72.7616 O.3    1362      M_A    0.0000
   9538 H         248.5686   63.2849   71.2111 H      1362      M_A    0.0000
   9539 H         247.4003   63.5230   72.5187 H      1362      M_A    0.0000
   9540 H         248.1117   61.1110   71.1684 H      1362      M_A    0.0000
   9541 H         246.4109   61.4301   70.7274 H      1362      M_A    0.0000
   9542 C         247.1039   59.8783   72.9795 C.3    1363      M_A    0.0000
   9543 C         246.2091   58.9303   72.1908 C.3    1363      M_A    0.0000
   9544 O         245.8684   57.8233   73.0240 O.3    1363      M_A    0.0000
   9545 H         248.1461   59.7186   72.6806 H      1363      M_A    0.0000
   9546 H         247.0286   59.6636   74.0515 H      1363      M_A    0.0000
   9547 H         246.7728   58.5807   71.3144 H      1363      M_A    0.0000
   9548 H         245.2974   59.4355   71.8448 H      1363      M_A    0.0000
   9549 C         244.7852   57.1018   72.4775 C.3    1364      M_A    0.0000
   9550 C         244.7432   55.6547   72.9526 C.3    1364      M_A    0.0000
   9551 O         243.9799   54.8893   72.0213 O.3    1364      M_A    0.0000
   9552 H         243.8560   57.6024   72.7723 H      1364      M_A    0.0000
   9553 H         244.8502   57.1379   71.3841 H      1364      M_A    0.0000
   9554 H         244.2602   55.6346   73.9396 H      1364      M_A    0.0000
   9555 H         245.7537   55.2348   73.0459 H      1364      M_A    0.0000
   9556 C         243.2451   53.8833   72.6852 C.3    1365      M_A    0.0000
   9557 C         243.8981   52.5109   72.5783 C.3    1365      M_A    0.0000
   9558 O         242.9745   51.5273   73.0424 O.3    1365      M_A    0.0000
   9559 H         243.1635   54.1595   73.7426 H      1365      M_A    0.0000
   9560 H         242.2313   53.8519   72.2703 H      1365      M_A    0.0000
   9561 H         244.7959   52.5111   73.2123 H      1365      M_A    0.0000
   9562 H         244.1964   52.2891   71.5449 H      1365      M_A    0.0000
   9563 C         243.6575   50.4002   73.5482 C.3    1366      M_A    0.0000
   9564 C         242.7998   49.1410   73.5409 C.3    1366      M_A    0.0000
   9565 O         243.1859   48.3180   74.6406 O.3    1366      M_A    0.0000
   9566 H         244.5462   50.2316   72.9297 H      1366      M_A    0.0000
   9567 H         243.9976   50.6189   74.5668 H      1366      M_A    0.0000
   9568 H         242.9806   48.6118   72.5947 H      1366      M_A    0.0000
   9569 H         241.7311   49.3843   73.6100 H      1366      M_A    0.0000
   9570 C         242.3285   47.2024   74.7547 C.3    1367      M_A    0.0000
   9571 C         243.0134   45.9967   75.3860 C.3    1367      M_A    0.0000
   9572 O         243.2624   45.0274   74.3690 O.3    1367      M_A    0.0000
   9573 H         241.4706   47.4909   75.3726 H      1367      M_A    0.0000
   9574 H         241.9496   46.9427   73.7597 H      1367      M_A    0.0000
   9575 H         242.3362   45.5792   76.1443 H      1367      M_A    0.0000
   9576 H         243.9556   46.2813   75.8732 H      1367      M_A    0.0000
   9577 C         243.7853   43.8410   74.9272 C.3    1368      M_A    0.0000
   9578 C         245.0986   44.0677   75.6655 C.3    1368      M_A    0.0000
   9579 O         245.9209   42.9132   75.5016 O.3    1368      M_A    0.0000
   9580 H         243.0459   43.4366   75.6277 H      1368      M_A    0.0000
   9581 H         243.9243   43.1040   74.1280 H      1368      M_A    0.0000
   9582 H         244.8691   44.2167   76.7300 H      1368      M_A    0.0000
   9583 H         245.6206   44.9578   75.2895 H      1368      M_A    0.0000
   9584 C         246.9875   42.9244   76.4262 C.3    1369      M_A    0.0000
   9585 C         248.1612   42.0614   75.9802 C.3    1369      M_A    0.0000
   9586 O         248.0879   40.8058   76.6539 O.3    1369      M_A    0.0000
   9587 H         247.3285   43.9593   76.5439 H      1369      M_A    0.0000
   9588 H         246.6171   42.5834   77.3996 H      1369      M_A    0.0000
   9589 H         249.0896   42.5812   76.2556 H      1369      M_A    0.0000
   9590 H         248.1534   41.9061   74.8930 H      1369      M_A    0.0000
   9591 C         248.3960   40.9551   78.0233 C.3    1370      M_A    0.0000
   9592 C         249.5382   40.0515   78.4708 C.3    1370      M_A    0.0000
   9593 O         249.0105   38.7591   78.7661 O.3    1370      M_A    0.0000
   9594 H         248.6758   41.9998   78.2000 H      1370      M_A    0.0000
   9595 H         247.4968   40.7469   78.6142 H      1370      M_A    0.0000
   9596 H         249.9846   40.4897   79.3745 H      1370      M_A    0.0000
   9597 H         250.3136   39.9735   77.6970 H      1370      M_A    0.0000
   9598 C         248.3415   38.2246   77.6438 C.3    1371      M_A    0.0000
   9599 C         248.7403   36.7831   77.3533 C.3    1371      M_A    0.0000
   9600 O         248.5613   36.5307   75.9604 O.3    1371      M_A    0.0000
   9601 H         247.2633   38.2661   77.8353 H      1371      M_A    0.0000
   9602 H         248.5493   38.8562   76.7727 H      1371      M_A    0.0000
   9603 H         248.0859   36.1241   77.9410 H      1371      M_A    0.0000
   9604 H         249.7830   36.5909   77.6396 H      1371      M_A    0.0000
   9605 C         248.2057   35.1827   75.7388 C.3    1372      M_A    0.0000
   9606 C         248.9979   34.2150   76.6091 C.3    1372      M_A    0.0000
   9607 O         249.6730   33.2859   75.7626 O.3    1372      M_A    0.0000
   9608 H         247.1380   35.0692   75.9578 H      1372      M_A    0.0000
   9609 H         248.3552   34.9458   74.6793 H      1372      M_A    0.0000
   9610 H         248.2887   33.6835   77.2591 H      1372      M_A    0.0000
   9611 H         249.7238   34.7460   77.2394 H      1372      M_A    0.0000
   9612 C         249.7498   32.0165   76.3753 C.3    1373      M_A    0.0000
   9613 C         251.0420   31.8187   77.1579 C.3    1373      M_A    0.0000
   9614 O         252.0094   31.2166   76.2991 O.3    1373      M_A    0.0000
   9615 H         248.8986   31.9130   77.0578 H      1373      M_A    0.0000
   9616 H         249.6539   31.2437   75.6042 H      1373      M_A    0.0000
   9617 H         250.8276   31.1533   78.0060 H      1373      M_A    0.0000
   9618 H         251.4249   32.7721   77.5459 H      1373      M_A    0.0000
   9619 C         252.8893   30.3952   77.0365 C.3    1374      M_A    0.0000
   9620 C         254.1274   31.1421   77.5167 C.3    1374      M_A    0.0000
   9621 O         255.2754   30.5804   76.8824 O.3    1374      M_A    0.0000
   9622 H         252.3472   30.0050   77.9053 H      1374      M_A    0.0000
   9623 H         253.1815   29.5408   76.4154 H      1374      M_A    0.0000
   9624 H         254.2005   31.0144   78.6059 H      1374      M_A    0.0000
   9625 H         254.0601   32.2148   77.2913 H      1374      M_A    0.0000
   9626 C         256.3864   30.5995   77.7530 C.3    1375      M_A    0.0000
   9627 C         257.6968   30.8794   77.0278 C.3    1375      M_A    0.0000
   9628 O         258.7284   30.0982   77.6289 O.3    1375      M_A    0.0000
   9629 H         256.2197   31.3792   78.5048 H      1375      M_A    0.0000
   9630 H         256.4432   29.6387   78.2771 H      1375      M_A    0.0000
   9631 H         257.9243   31.9491   77.1372 H      1375      M_A    0.0000
   9632 H         257.6206   30.6428   75.9581 H      1375      M_A    0.0000
   9633 C         258.4392   28.7208   77.5206 C.3    1376      M_A    0.0000
   9634 C         259.4860   27.8453   78.1981 C.3    1376      M_A    0.0000
   9635 O         260.0764   26.9951   77.2162 O.3    1376      M_A    0.0000
   9636 H         257.4639   28.5375   77.9854 H      1376      M_A    0.0000
   9637 H         258.3569   28.4578   76.4598 H      1376      M_A    0.0000
   9638 H         258.9795   27.2397   78.9629 H      1376      M_A    0.0000
   9639 H         260.2608   28.4523   78.6853 H      1376      M_A    0.0000
   9640 C         261.3781   26.6116   77.6053 C.3    1377      M_A    0.0000
   9641 C         261.7968   25.2705   77.0158 C.3    1377      M_A    0.0000
   9642 O         262.4693   24.5175   78.0240 O.3    1377      M_A    0.0000
   9643 H         262.0783   27.3846   77.2691 H      1377      M_A    0.0000
   9644 H         261.4246   26.5735   78.6996 H      1377      M_A    0.0000
   9645 H         262.4785   25.4659   76.1762 H      1377      M_A    0.0000
   9646 H         260.9297   24.7092   76.6426 H      1377      M_A    0.0000
   9647 C         262.9436   23.2950   77.5013 C.3    1378      M_A    0.0000
   9648 C         263.6698   22.4526   78.5427 C.3    1378      M_A    0.0000
   9649 O         265.0569   22.4110   78.2110 O.3    1378      M_A    0.0000
   9650 H         262.0862   22.7300   77.1185 H      1378      M_A    0.0000
   9651 H         263.6083   23.5046   76.6556 H      1378      M_A    0.0000
   9652 H         263.2469   21.4385   78.5149 H      1378      M_A    0.0000
   9653 H         263.5366   22.8626   79.5527 H      1378      M_A    0.0000
   9654 C         265.6958   21.3382   78.8695 C.3    1379      M_A    0.0000
   9655 C         266.5844   21.7988   80.0183 C.3    1379      M_A    0.0000
   9656 O         267.6647   20.8775   80.1590 O.3    1379      M_A    0.0000
   9657 H         264.9231   20.6672   79.2614 H      1379      M_A    0.0000
   9658 H         266.2865   20.7744   78.1386 H      1379      M_A    0.0000
   9659 H         265.9777   21.8084   80.9347 H      1379      M_A    0.0000
   9660 H         266.9733   22.8107   79.8424 H      1379      M_A    0.0000
   9661 C         268.6182   21.0659   79.1353 C.3    1380      M_A    0.0000
   9662 C         269.5209   19.8538   78.9423 C.3    1380      M_A    0.0000
   9663 O         270.6525   19.9846   79.8015 O.3    1380      M_A    0.0000
   9664 H         268.0827   21.2659   78.2003 H      1380      M_A    0.0000
   9665 H         269.2204   21.9511   79.3697 H      1380      M_A    0.0000
   9666 H         269.8469   19.8361   77.8928 H      1380      M_A    0.0000
   9667 H         268.9880   18.9189   79.1617 H      1380      M_A    0.0000
   9668 C         270.9627   18.7494   80.4103 C.3    1381      M_A    0.0000
   9669 C         272.4276   18.3642   80.2454 C.3    1381      M_A    0.0000
   9670 O         272.5797   16.9870   80.5860 O.3    1381      M_A    0.0000
   9671 H         270.7307   18.8258   81.4786 H      1381      M_A    0.0000
   9672 H         270.3181   17.9721   79.9846 H      1381      M_A    0.0000
   9673 H         273.0221   18.9873   80.9283 H      1381      M_A    0.0000
   9674 H         272.7739   18.5381   79.2179 H      1381      M_A    0.0000
   9675 C         271.8752   16.6850   81.7713 C.3    1382      M_A    0.0000
   9676 C         272.7063   15.8758   82.7593 C.3    1382      M_A    0.0000
   9677 O         272.5711   14.4908   82.4442 O.3    1382      M_A    0.0000
   9678 H         271.5768   17.6282   82.2428 H      1382      M_A    0.0000
   9679 H         270.9610   16.1390   81.5117 H      1382      M_A    0.0000
   9680 H         272.3187   16.0704   83.7692 H      1382      M_A    0.0000
   9681 H         273.7644   16.1679   82.7254 H      1382      M_A    0.0000
   9682 C         273.5284   14.1017   81.4826 C.3    1383      M_A    0.0000
   9683 C         274.4961   13.0490   82.0088 C.3    1383      M_A    0.0000
   9684 O         275.7643   13.2402   81.3837 O.3    1383      M_A    0.0000
   9685 H         272.9969   13.6969   80.6138 H      1383      M_A    0.0000
   9686 H         274.0799   14.9890   81.1515 H      1383      M_A    0.0000
   9687 H         274.0956   12.0589   81.7496 H      1383      M_A    0.0000
   9688 H         274.6011   13.1121   83.1002 H      1383      M_A    0.0000
   9689 C         275.7983   14.4682   80.6885 C.3    1384      M_A    0.0000
   9690 C         276.3793   14.3341   79.2864 C.3    1384      M_A    0.0000
   9691 O         276.5213   15.6375   78.7234 O.3    1384      M_A    0.0000
   9692 H         274.7737   14.8500   80.6164 H      1384      M_A    0.0000
   9693 H         276.3821   15.1899   81.2712 H      1384      M_A    0.0000
   9694 H         275.6789   13.7393   78.6834 H      1384      M_A    0.0000
   9695 H         277.3516   13.8236   79.3033 H      1384      M_A    0.0000
   9696 H         276.6963   15.5820   77.7607 H      1384      M_A    0.0000
   9697 H         156.9963  136.6058   21.7041 H         0      M_A    0.0000
@<TRIPOS>BOND
     1     1     2      1
     2     1     4      1
     3     1     5      1
     4     1  9697      1
     5     2     3      1
     6     2     6      1
     7     2     7      1
     8     3     8      1
     9     8     9      1
    10     8    11      1
    11     8    12      1
    12     9    10      1
    13     9    13      1
    14     9    14      1
    15    10    15      1
    16    15    16      1
    17    15    18      1
    18    15    19      1
    19    16    17      1
    20    16    20      1
    21    16    21      1
    22    17    22      1
    23    22    23      1
    24    22    25      1
    25    22    26      1
    26    23    24      1
    27    23    27      1
    28    23    28      1
    29    24    29      1
    30    29    30      1
    31    29    32      1
    32    29    33      1
    33    30    31      1
    34    30    34      1
    35    30    35      1
    36    31    36      1
    37    36    37      1
    38    36    39      1
    39    36    40      1
    40    37    38      1
    41    37    41      1
    42    37    42      1
    43    38    43      1
    44    43    44      1
    45    43    46      1
    46    43    47      1
    47    44    45      1
    48    44    48      1
    49    44    49      1
    50    45    50      1
    51    50    51      1
    52    50    53      1
    53    50    54      1
    54    51    52      1
    55    51    55      1
    56    51    56      1
    57    52    57      1
    58    57    58      1
    59    57    60      1
    60    57    61      1
    61    58    59      1
    62    58    62      1
    63    58    63      1
    64    59    64      1
    65    64    65      1
    66    64    67      1
    67    64    68      1
    68    65    66      1
    69    65    69      1
    70    65    70      1
    71    66    71      1
    72    71    72      1
    73    71    74      1
    74    71    75      1
    75    72    73      1
    76    72    76      1
    77    72    77      1
    78    73    78      1
    79    78    79      1
    80    78    81      1
    81    78    82      1
    82    79    80      1
    83    79    83      1
    84    79    84      1
    85    80    85      1
    86    85    86      1
    87    85    88      1
    88    85    89      1
    89    86    87      1
    90    86    90      1
    91    86    91      1
    92    87    92      1
    93    92    93      1
    94    92    95      1
    95    92    96      1
    96    93    94      1
    97    93    97      1
    98    93    98      1
    99    94    99      1
   100    99   100      1
   101    99   102      1
   102    99   103      1
   103   100   101      1
   104   100   104      1
   105   100   105      1
   106   101   106      1
   107   106   107      1
   108   106   109      1
   109   106   110      1
   110   107   108      1
   111   107   111      1
   112   107   112      1
   113   108   113      1
   114   113   114      1
   115   113   116      1
   116   113   117      1
   117   114   115      1
   118   114   118      1
   119   114   119      1
   120   115   120      1
   121   120   121      1
   122   120   123      1
   123   120   124      1
   124   121   122      1
   125   121   125      1
   126   121   126      1
   127   122   127      1
   128   127   128      1
   129   127   130      1
   130   127   131      1
   131   128   129      1
   132   128   132      1
   133   128   133      1
   134   129   134      1
   135   134   135      1
   136   134   137      1
   137   134   138      1
   138   135   136      1
   139   135   139      1
   140   135   140      1
   141   136   141      1
   142   141   142      1
   143   141   144      1
   144   141   145      1
   145   142   143      1
   146   142   146      1
   147   142   147      1
   148   143   148      1
   149   148   149      1
   150   148   151      1
   151   148   152      1
   152   149   150      1
   153   149   153      1
   154   149   154      1
   155   150   155      1
   156   155   156      1
   157   155   158      1
   158   155   159      1
   159   156   157      1
   160   156   160      1
   161   156   161      1
   162   157   162      1
   163   162   163      1
   164   162   165      1
   165   162   166      1
   166   163   164      1
   167   163   167      1
   168   163   168      1
   169   164   169      1
   170   169   170      1
   171   169   172      1
   172   169   173      1
   173   170   171      1
   174   170   174      1
   175   170   175      1
   176   171   176      1
   177   176   177      1
   178   176   179      1
   179   176   180      1
   180   177   178      1
   181   177   181      1
   182   177   182      1
   183   178   183      1
   184   183   184      1
   185   183   186      1
   186   183   187      1
   187   184   185      1
   188   184   188      1
   189   184   189      1
   190   185   190      1
   191   190   191      1
   192   190   193      1
   193   190   194      1
   194   191   192      1
   195   191   195      1
   196   191   196      1
   197   192   197      1
   198   197   198      1
   199   197   200      1
   200   197   201      1
   201   198   199      1
   202   198   202      1
   203   198   203      1
   204   199   204      1
   205   204   205      1
   206   204   207      1
   207   204   208      1
   208   205   206      1
   209   205   209      1
   210   205   210      1
   211   206   211      1
   212   211   212      1
   213   211   214      1
   214   211   215      1
   215   212   213      1
   216   212   216      1
   217   212   217      1
   218   213   218      1
   219   218   219      1
   220   218   221      1
   221   218   222      1
   222   219   220      1
   223   219   223      1
   224   219   224      1
   225   220   225      1
   226   225   226      1
   227   225   228      1
   228   225   229      1
   229   226   227      1
   230   226   230      1
   231   226   231      1
   232   227   232      1
   233   232   233      1
   234   232   235      1
   235   232   236      1
   236   233   234      1
   237   233   237      1
   238   233   238      1
   239   234   239      1
   240   239   240      1
   241   239   242      1
   242   239   243      1
   243   240   241      1
   244   240   244      1
   245   240   245      1
   246   241   246      1
   247   246   247      1
   248   246   249      1
   249   246   250      1
   250   247   248      1
   251   247   251      1
   252   247   252      1
   253   248   253      1
   254   253   254      1
   255   253   256      1
   256   253   257      1
   257   254   255      1
   258   254   258      1
   259   254   259      1
   260   255   260      1
   261   260   261      1
   262   260   263      1
   263   260   264      1
   264   261   262      1
   265   261   265      1
   266   261   266      1
   267   262   267      1
   268   267   268      1
   269   267   270      1
   270   267   271      1
   271   268   269      1
   272   268   272      1
   273   268   273      1
   274   269   274      1
   275   274   275      1
   276   274   277      1
   277   274   278      1
   278   275   276      1
   279   275   279      1
   280   275   280      1
   281   276   281      1
   282   281   282      1
   283   281   284      1
   284   281   285      1
   285   282   283      1
   286   282   286      1
   287   282   287      1
   288   283   288      1
   289   288   289      1
   290   288   291      1
   291   288   292      1
   292   289   290      1
   293   289   293      1
   294   289   294      1
   295   290   295      1
   296   295   296      1
   297   295   298      1
   298   295   299      1
   299   296   297      1
   300   296   300      1
   301   296   301      1
   302   297   302      1
   303   302   303      1
   304   302   305      1
   305   302   306      1
   306   303   304      1
   307   303   307      1
   308   303   308      1
   309   304   309      1
   310   309   310      1
   311   309   312      1
   312   309   313      1
   313   310   311      1
   314   310   314      1
   315   310   315      1
   316   311   316      1
   317   316   317      1
   318   316   319      1
   319   316   320      1
   320   317   318      1
   321   317   321      1
   322   317   322      1
   323   318   323      1
   324   323   324      1
   325   323   326      1
   326   323   327      1
   327   324   325      1
   328   324   328      1
   329   324   329      1
   330   325   330      1
   331   330   331      1
   332   330   333      1
   333   330   334      1
   334   331   332      1
   335   331   335      1
   336   331   336      1
   337   332   337      1
   338   337   338      1
   339   337   340      1
   340   337   341      1
   341   338   339      1
   342   338   342      1
   343   338   343      1
   344   339   344      1
   345   344   345      1
   346   344   347      1
   347   344   348      1
   348   345   346      1
   349   345   349      1
   350   345   350      1
   351   346   351      1
   352   351   352      1
   353   351   354      1
   354   351   355      1
   355   352   353      1
   356   352   356      1
   357   352   357      1
   358   353   358      1
   359   358   359      1
   360   358   361      1
   361   358   362      1
   362   359   360      1
   363   359   363      1
   364   359   364      1
   365   360   365      1
   366   365   366      1
   367   365   368      1
   368   365   369      1
   369   366   367      1
   370   366   370      1
   371   366   371      1
   372   367   372      1
   373   372   373      1
   374   372   375      1
   375   372   376      1
   376   373   374      1
   377   373   377      1
   378   373   378      1
   379   374   379      1
   380   379   380      1
   381   379   382      1
   382   379   383      1
   383   380   381      1
   384   380   384      1
   385   380   385      1
   386   381   386      1
   387   386   387      1
   388   386   389      1
   389   386   390      1
   390   387   388      1
   391   387   391      1
   392   387   392      1
   393   388   393      1
   394   393   394      1
   395   393   396      1
   396   393   397      1
   397   394   395      1
   398   394   398      1
   399   394   399      1
   400   395   400      1
   401   400   401      1
   402   400   403      1
   403   400   404      1
   404   401   402      1
   405   401   405      1
   406   401   406      1
   407   402   407      1
   408   407   408      1
   409   407   410      1
   410   407   411      1
   411   408   409      1
   412   408   412      1
   413   408   413      1
   414   409   414      1
   415   414   415      1
   416   414   417      1
   417   414   418      1
   418   415   416      1
   419   415   419      1
   420   415   420      1
   421   416   421      1
   422   421   422      1
   423   421   424      1
   424   421   425      1
   425   422   423      1
   426   422   426      1
   427   422   427      1
   428   423   428      1
   429   428   429      1
   430   428   431      1
   431   428   432      1
   432   429   430      1
   433   429   433      1
   434   429   434      1
   435   430   435      1
   436   435   436      1
   437   435   438      1
   438   435   439      1
   439   436   437      1
   440   436   440      1
   441   436   441      1
   442   437   442      1
   443   442   443      1
   444   442   445      1
   445   442   446      1
   446   443   444      1
   447   443   447      1
   448   443   448      1
   449   444   449      1
   450   449   450      1
   451   449   452      1
   452   449   453      1
   453   450   451      1
   454   450   454      1
   455   450   455      1
   456   451   456      1
   457   456   457      1
   458   456   459      1
   459   456   460      1
   460   457   458      1
   461   457   461      1
   462   457   462      1
   463   458   463      1
   464   463   464      1
   465   463   466      1
   466   463   467      1
   467   464   465      1
   468   464   468      1
   469   464   469      1
   470   465   470      1
   471   470   471      1
   472   470   473      1
   473   470   474      1
   474   471   472      1
   475   471   475      1
   476   471   476      1
   477   472   477      1
   478   477   478      1
   479   477   480      1
   480   477   481      1
   481   478   479      1
   482   478   482      1
   483   478   483      1
   484   479   484      1
   485   484   485      1
   486   484   487      1
   487   484   488      1
   488   485   486      1
   489   485   489      1
   490   485   490      1
   491   486   491      1
   492   491   492      1
   493   491   494      1
   494   491   495      1
   495   492   493      1
   496   492   496      1
   497   492   497      1
   498   493   498      1
   499   498   499      1
   500   498   501      1
   501   498   502      1
   502   499   500      1
   503   499   503      1
   504   499   504      1
   505   500   505      1
   506   505   506      1
   507   505   508      1
   508   505   509      1
   509   506   507      1
   510   506   510      1
   511   506   511      1
   512   507   512      1
   513   512   513      1
   514   512   515      1
   515   512   516      1
   516   513   514      1
   517   513   517      1
   518   513   518      1
   519   514   519      1
   520   519   520      1
   521   519   522      1
   522   519   523      1
   523   520   521      1
   524   520   524      1
   525   520   525      1
   526   521   526      1
   527   526   527      1
   528   526   529      1
   529   526   530      1
   530   527   528      1
   531   527   531      1
   532   527   532      1
   533   528   533      1
   534   533   534      1
   535   533   536      1
   536   533   537      1
   537   534   535      1
   538   534   538      1
   539   534   539      1
   540   535   540      1
   541   540   541      1
   542   540   543      1
   543   540   544      1
   544   541   542      1
   545   541   545      1
   546   541   546      1
   547   542   547      1
   548   547   548      1
   549   547   550      1
   550   547   551      1
   551   548   549      1
   552   548   552      1
   553   548   553      1
   554   549   554      1
   555   554   555      1
   556   554   557      1
   557   554   558      1
   558   555   556      1
   559   555   559      1
   560   555   560      1
   561   556   561      1
   562   561   562      1
   563   561   564      1
   564   561   565      1
   565   562   563      1
   566   562   566      1
   567   562   567      1
   568   563   568      1
   569   568   569      1
   570   568   571      1
   571   568   572      1
   572   569   570      1
   573   569   573      1
   574   569   574      1
   575   570   575      1
   576   575   576      1
   577   575   578      1
   578   575   579      1
   579   576   577      1
   580   576   580      1
   581   576   581      1
   582   577   582      1
   583   582   583      1
   584   582   585      1
   585   582   586      1
   586   583   584      1
   587   583   587      1
   588   583   588      1
   589   584   589      1
   590   589   590      1
   591   589   592      1
   592   589   593      1
   593   590   591      1
   594   590   594      1
   595   590   595      1
   596   591   596      1
   597   596   597      1
   598   596   599      1
   599   596   600      1
   600   597   598      1
   601   597   601      1
   602   597   602      1
   603   598   603      1
   604   603   604      1
   605   603   606      1
   606   603   607      1
   607   604   605      1
   608   604   608      1
   609   604   609      1
   610   605   610      1
   611   610   611      1
   612   610   613      1
   613   610   614      1
   614   611   612      1
   615   611   615      1
   616   611   616      1
   617   612   617      1
   618   617   618      1
   619   617   620      1
   620   617   621      1
   621   618   619      1
   622   618   622      1
   623   618   623      1
   624   619   624      1
   625   624   625      1
   626   624   627      1
   627   624   628      1
   628   625   626      1
   629   625   629      1
   630   625   630      1
   631   626   631      1
   632   631   632      1
   633   631   634      1
   634   631   635      1
   635   632   633      1
   636   632   636      1
   637   632   637      1
   638   633   638      1
   639   638   639      1
   640   638   641      1
   641   638   642      1
   642   639   640      1
   643   639   643      1
   644   639   644      1
   645   640   645      1
   646   645   646      1
   647   645   648      1
   648   645   649      1
   649   646   647      1
   650   646   650      1
   651   646   651      1
   652   647   652      1
   653   652   653      1
   654   652   655      1
   655   652   656      1
   656   653   654      1
   657   653   657      1
   658   653   658      1
   659   654   659      1
   660   659   660      1
   661   659   662      1
   662   659   663      1
   663   660   661      1
   664   660   664      1
   665   660   665      1
   666   661   666      1
   667   666   667      1
   668   666   669      1
   669   666   670      1
   670   667   668      1
   671   667   671      1
   672   667   672      1
   673   668   673      1
   674   673   674      1
   675   673   676      1
   676   673   677      1
   677   674   675      1
   678   674   678      1
   679   674   679      1
   680   675   680      1
   681   680   681      1
   682   680   683      1
   683   680   684      1
   684   681   682      1
   685   681   685      1
   686   681   686      1
   687   682   687      1
   688   687   688      1
   689   687   690      1
   690   687   691      1
   691   688   689      1
   692   688   692      1
   693   688   693      1
   694   689   694      1
   695   694   695      1
   696   694   697      1
   697   694   698      1
   698   695   696      1
   699   695   699      1
   700   695   700      1
   701   696   701      1
   702   701   702      1
   703   701   704      1
   704   701   705      1
   705   702   703      1
   706   702   706      1
   707   702   707      1
   708   703   708      1
   709   708   709      1
   710   708   711      1
   711   708   712      1
   712   709   710      1
   713   709   713      1
   714   709   714      1
   715   710   715      1
   716   715   716      1
   717   715   718      1
   718   715   719      1
   719   716   717      1
   720   716   720      1
   721   716   721      1
   722   717   722      1
   723   722   723      1
   724   722   725      1
   725   722   726      1
   726   723   724      1
   727   723   727      1
   728   723   728      1
   729   724   729      1
   730   729   730      1
   731   729   732      1
   732   729   733      1
   733   730   731      1
   734   730   734      1
   735   730   735      1
   736   731   736      1
   737   736   737      1
   738   736   739      1
   739   736   740      1
   740   737   738      1
   741   737   741      1
   742   737   742      1
   743   738   743      1
   744   743   744      1
   745   743   746      1
   746   743   747      1
   747   744   745      1
   748   744   748      1
   749   744   749      1
   750   745   750      1
   751   750   751      1
   752   750   753      1
   753   750   754      1
   754   751   752      1
   755   751   755      1
   756   751   756      1
   757   752   757      1
   758   757   758      1
   759   757   760      1
   760   757   761      1
   761   758   759      1
   762   758   762      1
   763   758   763      1
   764   759   764      1
   765   764   765      1
   766   764   767      1
   767   764   768      1
   768   765   766      1
   769   765   769      1
   770   765   770      1
   771   766   771      1
   772   771   772      1
   773   771   774      1
   774   771   775      1
   775   772   773      1
   776   772   776      1
   777   772   777      1
   778   773   778      1
   779   778   779      1
   780   778   781      1
   781   778   782      1
   782   779   780      1
   783   779   783      1
   784   779   784      1
   785   780   785      1
   786   785   786      1
   787   785   788      1
   788   785   789      1
   789   786   787      1
   790   786   790      1
   791   786   791      1
   792   787   792      1
   793   792   793      1
   794   792   795      1
   795   792   796      1
   796   793   794      1
   797   793   797      1
   798   793   798      1
   799   794   799      1
   800   799   800      1
   801   799   802      1
   802   799   803      1
   803   800   801      1
   804   800   804      1
   805   800   805      1
   806   801   806      1
   807   806   807      1
   808   806   809      1
   809   806   810      1
   810   807   808      1
   811   807   811      1
   812   807   812      1
   813   808   813      1
   814   813   814      1
   815   813   816      1
   816   813   817      1
   817   814   815      1
   818   814   818      1
   819   814   819      1
   820   815   820      1
   821   820   821      1
   822   820   823      1
   823   820   824      1
   824   821   822      1
   825   821   825      1
   826   821   826      1
   827   822   827      1
   828   827   828      1
   829   827   830      1
   830   827   831      1
   831   828   829      1
   832   828   832      1
   833   828   833      1
   834   829   834      1
   835   834   835      1
   836   834   837      1
   837   834   838      1
   838   835   836      1
   839   835   839      1
   840   835   840      1
   841   836   841      1
   842   841   842      1
   843   841   844      1
   844   841   845      1
   845   842   843      1
   846   842   846      1
   847   842   847      1
   848   843   848      1
   849   848   849      1
   850   848   851      1
   851   848   852      1
   852   849   850      1
   853   849   853      1
   854   849   854      1
   855   850   855      1
   856   855   856      1
   857   855   858      1
   858   855   859      1
   859   856   857      1
   860   856   860      1
   861   856   861      1
   862   857   862      1
   863   862   863      1
   864   862   865      1
   865   862   866      1
   866   863   864      1
   867   863   867      1
   868   863   868      1
   869   864   869      1
   870   869   870      1
   871   869   872      1
   872   869   873      1
   873   870   871      1
   874   870   874      1
   875   870   875      1
   876   871   876      1
   877   876   877      1
   878   876   879      1
   879   876   880      1
   880   877   878      1
   881   877   881      1
   882   877   882      1
   883   878   883      1
   884   883   884      1
   885   883   886      1
   886   883   887      1
   887   884   885      1
   888   884   888      1
   889   884   889      1
   890   885   890      1
   891   890   891      1
   892   890   893      1
   893   890   894      1
   894   891   892      1
   895   891   895      1
   896   891   896      1
   897   892   897      1
   898   897   898      1
   899   897   900      1
   900   897   901      1
   901   898   899      1
   902   898   902      1
   903   898   903      1
   904   899   904      1
   905   904   905      1
   906   904   907      1
   907   904   908      1
   908   905   906      1
   909   905   909      1
   910   905   910      1
   911   906   911      1
   912   911   912      1
   913   911   914      1
   914   911   915      1
   915   912   913      1
   916   912   916      1
   917   912   917      1
   918   913   918      1
   919   918   919      1
   920   918   921      1
   921   918   922      1
   922   919   920      1
   923   919   923      1
   924   919   924      1
   925   920   925      1
   926   925   926      1
   927   925   928      1
   928   925   929      1
   929   926   927      1
   930   926   930      1
   931   926   931      1
   932   927   932      1
   933   932   933      1
   934   932   935      1
   935   932   936      1
   936   933   934      1
   937   933   937      1
   938   933   938      1
   939   934   939      1
   940   939   940      1
   941   939   942      1
   942   939   943      1
   943   940   941      1
   944   940   944      1
   945   940   945      1
   946   941   946      1
   947   946   947      1
   948   946   949      1
   949   946   950      1
   950   947   948      1
   951   947   951      1
   952   947   952      1
   953   948   953      1
   954   953   954      1
   955   953   956      1
   956   953   957      1
   957   954   955      1
   958   954   958      1
   959   954   959      1
   960   955   960      1
   961   960   961      1
   962   960   963      1
   963   960   964      1
   964   961   962      1
   965   961   965      1
   966   961   966      1
   967   962   967      1
   968   967   968      1
   969   967   970      1
   970   967   971      1
   971   968   969      1
   972   968   972      1
   973   968   973      1
   974   969   974      1
   975   974   975      1
   976   974   977      1
   977   974   978      1
   978   975   976      1
   979   975   979      1
   980   975   980      1
   981   976   981      1
   982   981   982      1
   983   981   984      1
   984   981   985      1
   985   982   983      1
   986   982   986      1
   987   982   987      1
   988   983   988      1
   989   988   989      1
   990   988   991      1
   991   988   992      1
   992   989   990      1
   993   989   993      1
   994   989   994      1
   995   990   995      1
   996   995   996      1
   997   995   998      1
   998   995   999      1
   999   996   997      1
  1000   996  1000      1
  1001   996  1001      1
  1002   997  1002      1
  1003  1002  1003      1
  1004  1002  1005      1
  1005  1002  1006      1
  1006  1003  1004      1
  1007  1003  1007      1
  1008  1003  1008      1
  1009  1004  1009      1
  1010  1009  1010      1
  1011  1009  1012      1
  1012  1009  1013      1
  1013  1010  1011      1
  1014  1010  1014      1
  1015  1010  1015      1
  1016  1011  1016      1
  1017  1016  1017      1
  1018  1016  1019      1
  1019  1016  1020      1
  1020  1017  1018      1
  1021  1017  1021      1
  1022  1017  1022      1
  1023  1018  1023      1
  1024  1023  1024      1
  1025  1023  1026      1
  1026  1023  1027      1
  1027  1024  1025      1
  1028  1024  1028      1
  1029  1024  1029      1
  1030  1025  1030      1
  1031  1030  1031      1
  1032  1030  1033      1
  1033  1030  1034      1
  1034  1031  1032      1
  1035  1031  1035      1
  1036  1031  1036      1
  1037  1032  1037      1
  1038  1037  1038      1
  1039  1037  1040      1
  1040  1037  1041      1
  1041  1038  1039      1
  1042  1038  1042      1
  1043  1038  1043      1
  1044  1039  1044      1
  1045  1044  1045      1
  1046  1044  1047      1
  1047  1044  1048      1
  1048  1045  1046      1
  1049  1045  1049      1
  1050  1045  1050      1
  1051  1046  1051      1
  1052  1051  1052      1
  1053  1051  1054      1
  1054  1051  1055      1
  1055  1052  1053      1
  1056  1052  1056      1
  1057  1052  1057      1
  1058  1053  1058      1
  1059  1058  1059      1
  1060  1058  1061      1
  1061  1058  1062      1
  1062  1059  1060      1
  1063  1059  1063      1
  1064  1059  1064      1
  1065  1060  1065      1
  1066  1065  1066      1
  1067  1065  1068      1
  1068  1065  1069      1
  1069  1066  1067      1
  1070  1066  1070      1
  1071  1066  1071      1
  1072  1067  1072      1
  1073  1072  1073      1
  1074  1072  1075      1
  1075  1072  1076      1
  1076  1073  1074      1
  1077  1073  1077      1
  1078  1073  1078      1
  1079  1074  1079      1
  1080  1079  1080      1
  1081  1079  1082      1
  1082  1079  1083      1
  1083  1080  1081      1
  1084  1080  1084      1
  1085  1080  1085      1
  1086  1081  1086      1
  1087  1086  1087      1
  1088  1086  1089      1
  1089  1086  1090      1
  1090  1087  1088      1
  1091  1087  1091      1
  1092  1087  1092      1
  1093  1088  1093      1
  1094  1093  1094      1
  1095  1093  1096      1
  1096  1093  1097      1
  1097  1094  1095      1
  1098  1094  1098      1
  1099  1094  1099      1
  1100  1095  1100      1
  1101  1100  1101      1
  1102  1100  1103      1
  1103  1100  1104      1
  1104  1101  1102      1
  1105  1101  1105      1
  1106  1101  1106      1
  1107  1102  1107      1
  1108  1107  1108      1
  1109  1107  1110      1
  1110  1107  1111      1
  1111  1108  1109      1
  1112  1108  1112      1
  1113  1108  1113      1
  1114  1109  1114      1
  1115  1114  1115      1
  1116  1114  1117      1
  1117  1114  1118      1
  1118  1115  1116      1
  1119  1115  1119      1
  1120  1115  1120      1
  1121  1116  1121      1
  1122  1121  1122      1
  1123  1121  1124      1
  1124  1121  1125      1
  1125  1122  1123      1
  1126  1122  1126      1
  1127  1122  1127      1
  1128  1123  1128      1
  1129  1128  1129      1
  1130  1128  1131      1
  1131  1128  1132      1
  1132  1129  1130      1
  1133  1129  1133      1
  1134  1129  1134      1
  1135  1130  1135      1
  1136  1135  1136      1
  1137  1135  1138      1
  1138  1135  1139      1
  1139  1136  1137      1
  1140  1136  1140      1
  1141  1136  1141      1
  1142  1137  1142      1
  1143  1142  1143      1
  1144  1142  1145      1
  1145  1142  1146      1
  1146  1143  1144      1
  1147  1143  1147      1
  1148  1143  1148      1
  1149  1144  1149      1
  1150  1149  1150      1
  1151  1149  1152      1
  1152  1149  1153      1
  1153  1150  1151      1
  1154  1150  1154      1
  1155  1150  1155      1
  1156  1151  1156      1
  1157  1156  1157      1
  1158  1156  1159      1
  1159  1156  1160      1
  1160  1157  1158      1
  1161  1157  1161      1
  1162  1157  1162      1
  1163  1158  1163      1
  1164  1163  1164      1
  1165  1163  1166      1
  1166  1163  1167      1
  1167  1164  1165      1
  1168  1164  1168      1
  1169  1164  1169      1
  1170  1165  1170      1
  1171  1170  1171      1
  1172  1170  1173      1
  1173  1170  1174      1
  1174  1171  1172      1
  1175  1171  1175      1
  1176  1171  1176      1
  1177  1172  1177      1
  1178  1177  1178      1
  1179  1177  1180      1
  1180  1177  1181      1
  1181  1178  1179      1
  1182  1178  1182      1
  1183  1178  1183      1
  1184  1179  1184      1
  1185  1184  1185      1
  1186  1184  1187      1
  1187  1184  1188      1
  1188  1185  1186      1
  1189  1185  1189      1
  1190  1185  1190      1
  1191  1186  1191      1
  1192  1191  1192      1
  1193  1191  1194      1
  1194  1191  1195      1
  1195  1192  1193      1
  1196  1192  1196      1
  1197  1192  1197      1
  1198  1193  1198      1
  1199  1198  1199      1
  1200  1198  1201      1
  1201  1198  1202      1
  1202  1199  1200      1
  1203  1199  1203      1
  1204  1199  1204      1
  1205  1200  1205      1
  1206  1205  1206      1
  1207  1205  1208      1
  1208  1205  1209      1
  1209  1206  1207      1
  1210  1206  1210      1
  1211  1206  1211      1
  1212  1207  1212      1
  1213  1212  1213      1
  1214  1212  1215      1
  1215  1212  1216      1
  1216  1213  1214      1
  1217  1213  1217      1
  1218  1213  1218      1
  1219  1214  1219      1
  1220  1219  1220      1
  1221  1219  1222      1
  1222  1219  1223      1
  1223  1220  1221      1
  1224  1220  1224      1
  1225  1220  1225      1
  1226  1221  1226      1
  1227  1226  1227      1
  1228  1226  1229      1
  1229  1226  1230      1
  1230  1227  1228      1
  1231  1227  1231      1
  1232  1227  1232      1
  1233  1228  1233      1
  1234  1233  1234      1
  1235  1233  1236      1
  1236  1233  1237      1
  1237  1234  1235      1
  1238  1234  1238      1
  1239  1234  1239      1
  1240  1235  1240      1
  1241  1240  1241      1
  1242  1240  1243      1
  1243  1240  1244      1
  1244  1241  1242      1
  1245  1241  1245      1
  1246  1241  1246      1
  1247  1242  1247      1
  1248  1247  1248      1
  1249  1247  1250      1
  1250  1247  1251      1
  1251  1248  1249      1
  1252  1248  1252      1
  1253  1248  1253      1
  1254  1249  1254      1
  1255  1254  1255      1
  1256  1254  1257      1
  1257  1254  1258      1
  1258  1255  1256      1
  1259  1255  1259      1
  1260  1255  1260      1
  1261  1256  1261      1
  1262  1261  1262      1
  1263  1261  1264      1
  1264  1261  1265      1
  1265  1262  1263      1
  1266  1262  1266      1
  1267  1262  1267      1
  1268  1263  1268      1
  1269  1268  1269      1
  1270  1268  1271      1
  1271  1268  1272      1
  1272  1269  1270      1
  1273  1269  1273      1
  1274  1269  1274      1
  1275  1270  1275      1
  1276  1275  1276      1
  1277  1275  1278      1
  1278  1275  1279      1
  1279  1276  1277      1
  1280  1276  1280      1
  1281  1276  1281      1
  1282  1277  1282      1
  1283  1282  1283      1
  1284  1282  1285      1
  1285  1282  1286      1
  1286  1283  1284      1
  1287  1283  1287      1
  1288  1283  1288      1
  1289  1284  1289      1
  1290  1289  1290      1
  1291  1289  1292      1
  1292  1289  1293      1
  1293  1290  1291      1
  1294  1290  1294      1
  1295  1290  1295      1
  1296  1291  1296      1
  1297  1296  1297      1
  1298  1296  1299      1
  1299  1296  1300      1
  1300  1297  1298      1
  1301  1297  1301      1
  1302  1297  1302      1
  1303  1298  1303      1
  1304  1303  1304      1
  1305  1303  1306      1
  1306  1303  1307      1
  1307  1304  1305      1
  1308  1304  1308      1
  1309  1304  1309      1
  1310  1305  1310      1
  1311  1310  1311      1
  1312  1310  1313      1
  1313  1310  1314      1
  1314  1311  1312      1
  1315  1311  1315      1
  1316  1311  1316      1
  1317  1312  1317      1
  1318  1317  1318      1
  1319  1317  1320      1
  1320  1317  1321      1
  1321  1318  1319      1
  1322  1318  1322      1
  1323  1318  1323      1
  1324  1319  1324      1
  1325  1324  1325      1
  1326  1324  1327      1
  1327  1324  1328      1
  1328  1325  1326      1
  1329  1325  1329      1
  1330  1325  1330      1
  1331  1326  1331      1
  1332  1331  1332      1
  1333  1331  1334      1
  1334  1331  1335      1
  1335  1332  1333      1
  1336  1332  1336      1
  1337  1332  1337      1
  1338  1333  1338      1
  1339  1338  1339      1
  1340  1338  1341      1
  1341  1338  1342      1
  1342  1339  1340      1
  1343  1339  1343      1
  1344  1339  1344      1
  1345  1340  1345      1
  1346  1345  1346      1
  1347  1345  1348      1
  1348  1345  1349      1
  1349  1346  1347      1
  1350  1346  1350      1
  1351  1346  1351      1
  1352  1347  1352      1
  1353  1352  1353      1
  1354  1352  1355      1
  1355  1352  1356      1
  1356  1353  1354      1
  1357  1353  1357      1
  1358  1353  1358      1
  1359  1354  1359      1
  1360  1359  1360      1
  1361  1359  1362      1
  1362  1359  1363      1
  1363  1360  1361      1
  1364  1360  1364      1
  1365  1360  1365      1
  1366  1361  1366      1
  1367  1366  1367      1
  1368  1366  1369      1
  1369  1366  1370      1
  1370  1367  1368      1
  1371  1367  1371      1
  1372  1367  1372      1
  1373  1368  1373      1
  1374  1373  1374      1
  1375  1373  1376      1
  1376  1373  1377      1
  1377  1374  1375      1
  1378  1374  1378      1
  1379  1374  1379      1
  1380  1375  1380      1
  1381  1380  1381      1
  1382  1380  1383      1
  1383  1380  1384      1
  1384  1381  1382      1
  1385  1381  1385      1
  1386  1381  1386      1
  1387  1382  1387      1
  1388  1387  1388      1
  1389  1387  1390      1
  1390  1387  1391      1
  1391  1388  1389      1
  1392  1388  1392      1
  1393  1388  1393      1
  1394  1389  1394      1
  1395  1394  1395      1
  1396  1394  1397      1
  1397  1394  1398      1
  1398  1395  1396      1
  1399  1395  1399      1
  1400  1395  1400      1
  1401  1396  1401      1
  1402  1401  1402      1
  1403  1401  1404      1
  1404  1401  1405      1
  1405  1402  1403      1
  1406  1402  1406      1
  1407  1402  1407      1
  1408  1403  1408      1
  1409  1408  1409      1
  1410  1408  1411      1
  1411  1408  1412      1
  1412  1409  1410      1
  1413  1409  1413      1
  1414  1409  1414      1
  1415  1410  1415      1
  1416  1415  1416      1
  1417  1415  1418      1
  1418  1415  1419      1
  1419  1416  1417      1
  1420  1416  1420      1
  1421  1416  1421      1
  1422  1417  1422      1
  1423  1422  1423      1
  1424  1422  1425      1
  1425  1422  1426      1
  1426  1423  1424      1
  1427  1423  1427      1
  1428  1423  1428      1
  1429  1424  1429      1
  1430  1429  1430      1
  1431  1429  1432      1
  1432  1429  1433      1
  1433  1430  1431      1
  1434  1430  1434      1
  1435  1430  1435      1
  1436  1431  1436      1
  1437  1436  1437      1
  1438  1436  1439      1
  1439  1436  1440      1
  1440  1437  1438      1
  1441  1437  1441      1
  1442  1437  1442      1
  1443  1438  1443      1
  1444  1443  1444      1
  1445  1443  1446      1
  1446  1443  1447      1
  1447  1444  1445      1
  1448  1444  1448      1
  1449  1444  1449      1
  1450  1445  1450      1
  1451  1450  1451      1
  1452  1450  1453      1
  1453  1450  1454      1
  1454  1451  1452      1
  1455  1451  1455      1
  1456  1451  1456      1
  1457  1452  1457      1
  1458  1457  1458      1
  1459  1457  1460      1
  1460  1457  1461      1
  1461  1458  1459      1
  1462  1458  1462      1
  1463  1458  1463      1
  1464  1459  1464      1
  1465  1464  1465      1
  1466  1464  1467      1
  1467  1464  1468      1
  1468  1465  1466      1
  1469  1465  1469      1
  1470  1465  1470      1
  1471  1466  1471      1
  1472  1471  1472      1
  1473  1471  1474      1
  1474  1471  1475      1
  1475  1472  1473      1
  1476  1472  1476      1
  1477  1472  1477      1
  1478  1473  1478      1
  1479  1478  1479      1
  1480  1478  1481      1
  1481  1478  1482      1
  1482  1479  1480      1
  1483  1479  1483      1
  1484  1479  1484      1
  1485  1480  1485      1
  1486  1485  1486      1
  1487  1485  1488      1
  1488  1485  1489      1
  1489  1486  1487      1
  1490  1486  1490      1
  1491  1486  1491      1
  1492  1487  1492      1
  1493  1492  1493      1
  1494  1492  1495      1
  1495  1492  1496      1
  1496  1493  1494      1
  1497  1493  1497      1
  1498  1493  1498      1
  1499  1494  1499      1
  1500  1499  1500      1
  1501  1499  1502      1
  1502  1499  1503      1
  1503  1500  1501      1
  1504  1500  1504      1
  1505  1500  1505      1
  1506  1501  1506      1
  1507  1506  1507      1
  1508  1506  1509      1
  1509  1506  1510      1
  1510  1507  1508      1
  1511  1507  1511      1
  1512  1507  1512      1
  1513  1508  1513      1
  1514  1513  1514      1
  1515  1513  1516      1
  1516  1513  1517      1
  1517  1514  1515      1
  1518  1514  1518      1
  1519  1514  1519      1
  1520  1515  1520      1
  1521  1520  1521      1
  1522  1520  1523      1
  1523  1520  1524      1
  1524  1521  1522      1
  1525  1521  1525      1
  1526  1521  1526      1
  1527  1522  1527      1
  1528  1527  1528      1
  1529  1527  1530      1
  1530  1527  1531      1
  1531  1528  1529      1
  1532  1528  1532      1
  1533  1528  1533      1
  1534  1529  1534      1
  1535  1534  1535      1
  1536  1534  1537      1
  1537  1534  1538      1
  1538  1535  1536      1
  1539  1535  1539      1
  1540  1535  1540      1
  1541  1536  1541      1
  1542  1541  1542      1
  1543  1541  1544      1
  1544  1541  1545      1
  1545  1542  1543      1
  1546  1542  1546      1
  1547  1542  1547      1
  1548  1543  1548      1
  1549  1548  1549      1
  1550  1548  1551      1
  1551  1548  1552      1
  1552  1549  1550      1
  1553  1549  1553      1
  1554  1549  1554      1
  1555  1550  1555      1
  1556  1555  1556      1
  1557  1555  1558      1
  1558  1555  1559      1
  1559  1556  1557      1
  1560  1556  1560      1
  1561  1556  1561      1
  1562  1557  1562      1
  1563  1562  1563      1
  1564  1562  1565      1
  1565  1562  1566      1
  1566  1563  1564      1
  1567  1563  1567      1
  1568  1563  1568      1
  1569  1564  1569      1
  1570  1569  1570      1
  1571  1569  1572      1
  1572  1569  1573      1
  1573  1570  1571      1
  1574  1570  1574      1
  1575  1570  1575      1
  1576  1571  1576      1
  1577  1576  1577      1
  1578  1576  1579      1
  1579  1576  1580      1
  1580  1577  1578      1
  1581  1577  1581      1
  1582  1577  1582      1
  1583  1578  1583      1
  1584  1583  1584      1
  1585  1583  1586      1
  1586  1583  1587      1
  1587  1584  1585      1
  1588  1584  1588      1
  1589  1584  1589      1
  1590  1585  1590      1
  1591  1590  1591      1
  1592  1590  1593      1
  1593  1590  1594      1
  1594  1591  1592      1
  1595  1591  1595      1
  1596  1591  1596      1
  1597  1592  1597      1
  1598  1597  1598      1
  1599  1597  1600      1
  1600  1597  1601      1
  1601  1598  1599      1
  1602  1598  1602      1
  1603  1598  1603      1
  1604  1599  1604      1
  1605  1604  1605      1
  1606  1604  1607      1
  1607  1604  1608      1
  1608  1605  1606      1
  1609  1605  1609      1
  1610  1605  1610      1
  1611  1606  1611      1
  1612  1611  1612      1
  1613  1611  1614      1
  1614  1611  1615      1
  1615  1612  1613      1
  1616  1612  1616      1
  1617  1612  1617      1
  1618  1613  1618      1
  1619  1618  1619      1
  1620  1618  1621      1
  1621  1618  1622      1
  1622  1619  1620      1
  1623  1619  1623      1
  1624  1619  1624      1
  1625  1620  1625      1
  1626  1625  1626      1
  1627  1625  1628      1
  1628  1625  1629      1
  1629  1626  1627      1
  1630  1626  1630      1
  1631  1626  1631      1
  1632  1627  1632      1
  1633  1632  1633      1
  1634  1632  1635      1
  1635  1632  1636      1
  1636  1633  1634      1
  1637  1633  1637      1
  1638  1633  1638      1
  1639  1634  1639      1
  1640  1639  1640      1
  1641  1639  1642      1
  1642  1639  1643      1
  1643  1640  1641      1
  1644  1640  1644      1
  1645  1640  1645      1
  1646  1641  1646      1
  1647  1646  1647      1
  1648  1646  1649      1
  1649  1646  1650      1
  1650  1647  1648      1
  1651  1647  1651      1
  1652  1647  1652      1
  1653  1648  1653      1
  1654  1653  1654      1
  1655  1653  1656      1
  1656  1653  1657      1
  1657  1654  1655      1
  1658  1654  1658      1
  1659  1654  1659      1
  1660  1655  1660      1
  1661  1660  1661      1
  1662  1660  1663      1
  1663  1660  1664      1
  1664  1661  1662      1
  1665  1661  1665      1
  1666  1661  1666      1
  1667  1662  1667      1
  1668  1667  1668      1
  1669  1667  1670      1
  1670  1667  1671      1
  1671  1668  1669      1
  1672  1668  1672      1
  1673  1668  1673      1
  1674  1669  1674      1
  1675  1674  1675      1
  1676  1674  1677      1
  1677  1674  1678      1
  1678  1675  1676      1
  1679  1675  1679      1
  1680  1675  1680      1
  1681  1676  1681      1
  1682  1681  1682      1
  1683  1681  1684      1
  1684  1681  1685      1
  1685  1682  1683      1
  1686  1682  1686      1
  1687  1682  1687      1
  1688  1683  1688      1
  1689  1688  1689      1
  1690  1688  1691      1
  1691  1688  1692      1
  1692  1689  1690      1
  1693  1689  1693      1
  1694  1689  1694      1
  1695  1690  1695      1
  1696  1695  1696      1
  1697  1695  1698      1
  1698  1695  1699      1
  1699  1696  1697      1
  1700  1696  1700      1
  1701  1696  1701      1
  1702  1697  1702      1
  1703  1702  1703      1
  1704  1702  1705      1
  1705  1702  1706      1
  1706  1703  1704      1
  1707  1703  1707      1
  1708  1703  1708      1
  1709  1704  1709      1
  1710  1709  1710      1
  1711  1709  1712      1
  1712  1709  1713      1
  1713  1710  1711      1
  1714  1710  1714      1
  1715  1710  1715      1
  1716  1711  1716      1
  1717  1716  1717      1
  1718  1716  1719      1
  1719  1716  1720      1
  1720  1717  1718      1
  1721  1717  1721      1
  1722  1717  1722      1
  1723  1718  1723      1
  1724  1723  1724      1
  1725  1723  1726      1
  1726  1723  1727      1
  1727  1724  1725      1
  1728  1724  1728      1
  1729  1724  1729      1
  1730  1725  1730      1
  1731  1730  1731      1
  1732  1730  1733      1
  1733  1730  1734      1
  1734  1731  1732      1
  1735  1731  1735      1
  1736  1731  1736      1
  1737  1732  1737      1
  1738  1737  1738      1
  1739  1737  1740      1
  1740  1737  1741      1
  1741  1738  1739      1
  1742  1738  1742      1
  1743  1738  1743      1
  1744  1739  1744      1
  1745  1744  1745      1
  1746  1744  1747      1
  1747  1744  1748      1
  1748  1745  1746      1
  1749  1745  1749      1
  1750  1745  1750      1
  1751  1746  1751      1
  1752  1751  1752      1
  1753  1751  1754      1
  1754  1751  1755      1
  1755  1752  1753      1
  1756  1752  1756      1
  1757  1752  1757      1
  1758  1753  1758      1
  1759  1758  1759      1
  1760  1758  1761      1
  1761  1758  1762      1
  1762  1759  1760      1
  1763  1759  1763      1
  1764  1759  1764      1
  1765  1760  1765      1
  1766  1765  1766      1
  1767  1765  1768      1
  1768  1765  1769      1
  1769  1766  1767      1
  1770  1766  1770      1
  1771  1766  1771      1
  1772  1767  1772      1
  1773  1772  1773      1
  1774  1772  1775      1
  1775  1772  1776      1
  1776  1773  1774      1
  1777  1773  1777      1
  1778  1773  1778      1
  1779  1774  1779      1
  1780  1779  1780      1
  1781  1779  1782      1
  1782  1779  1783      1
  1783  1780  1781      1
  1784  1780  1784      1
  1785  1780  1785      1
  1786  1781  1786      1
  1787  1786  1787      1
  1788  1786  1789      1
  1789  1786  1790      1
  1790  1787  1788      1
  1791  1787  1791      1
  1792  1787  1792      1
  1793  1788  1793      1
  1794  1793  1794      1
  1795  1793  1796      1
  1796  1793  1797      1
  1797  1794  1795      1
  1798  1794  1798      1
  1799  1794  1799      1
  1800  1795  1800      1
  1801  1800  1801      1
  1802  1800  1803      1
  1803  1800  1804      1
  1804  1801  1802      1
  1805  1801  1805      1
  1806  1801  1806      1
  1807  1802  1807      1
  1808  1807  1808      1
  1809  1807  1810      1
  1810  1807  1811      1
  1811  1808  1809      1
  1812  1808  1812      1
  1813  1808  1813      1
  1814  1809  1814      1
  1815  1814  1815      1
  1816  1814  1817      1
  1817  1814  1818      1
  1818  1815  1816      1
  1819  1815  1819      1
  1820  1815  1820      1
  1821  1816  1821      1
  1822  1821  1822      1
  1823  1821  1824      1
  1824  1821  1825      1
  1825  1822  1823      1
  1826  1822  1826      1
  1827  1822  1827      1
  1828  1823  1828      1
  1829  1828  1829      1
  1830  1828  1831      1
  1831  1828  1832      1
  1832  1829  1830      1
  1833  1829  1833      1
  1834  1829  1834      1
  1835  1830  1835      1
  1836  1835  1836      1
  1837  1835  1838      1
  1838  1835  1839      1
  1839  1836  1837      1
  1840  1836  1840      1
  1841  1836  1841      1
  1842  1837  1842      1
  1843  1842  1843      1
  1844  1842  1845      1
  1845  1842  1846      1
  1846  1843  1844      1
  1847  1843  1847      1
  1848  1843  1848      1
  1849  1844  1849      1
  1850  1849  1850      1
  1851  1849  1852      1
  1852  1849  1853      1
  1853  1850  1851      1
  1854  1850  1854      1
  1855  1850  1855      1
  1856  1851  1856      1
  1857  1856  1857      1
  1858  1856  1859      1
  1859  1856  1860      1
  1860  1857  1858      1
  1861  1857  1861      1
  1862  1857  1862      1
  1863  1858  1863      1
  1864  1863  1864      1
  1865  1863  1866      1
  1866  1863  1867      1
  1867  1864  1865      1
  1868  1864  1868      1
  1869  1864  1869      1
  1870  1865  1870      1
  1871  1870  1871      1
  1872  1870  1873      1
  1873  1870  1874      1
  1874  1871  1872      1
  1875  1871  1875      1
  1876  1871  1876      1
  1877  1872  1877      1
  1878  1877  1878      1
  1879  1877  1880      1
  1880  1877  1881      1
  1881  1878  1879      1
  1882  1878  1882      1
  1883  1878  1883      1
  1884  1879  1884      1
  1885  1884  1885      1
  1886  1884  1887      1
  1887  1884  1888      1
  1888  1885  1886      1
  1889  1885  1889      1
  1890  1885  1890      1
  1891  1886  1891      1
  1892  1891  1892      1
  1893  1891  1894      1
  1894  1891  1895      1
  1895  1892  1893      1
  1896  1892  1896      1
  1897  1892  1897      1
  1898  1893  1898      1
  1899  1898  1899      1
  1900  1898  1901      1
  1901  1898  1902      1
  1902  1899  1900      1
  1903  1899  1903      1
  1904  1899  1904      1
  1905  1900  1905      1
  1906  1905  1906      1
  1907  1905  1908      1
  1908  1905  1909      1
  1909  1906  1907      1
  1910  1906  1910      1
  1911  1906  1911      1
  1912  1907  1912      1
  1913  1912  1913      1
  1914  1912  1915      1
  1915  1912  1916      1
  1916  1913  1914      1
  1917  1913  1917      1
  1918  1913  1918      1
  1919  1914  1919      1
  1920  1919  1920      1
  1921  1919  1922      1
  1922  1919  1923      1
  1923  1920  1921      1
  1924  1920  1924      1
  1925  1920  1925      1
  1926  1921  1926      1
  1927  1926  1927      1
  1928  1926  1929      1
  1929  1926  1930      1
  1930  1927  1928      1
  1931  1927  1931      1
  1932  1927  1932      1
  1933  1928  1933      1
  1934  1933  1934      1
  1935  1933  1936      1
  1936  1933  1937      1
  1937  1934  1935      1
  1938  1934  1938      1
  1939  1934  1939      1
  1940  1935  1940      1
  1941  1940  1941      1
  1942  1940  1943      1
  1943  1940  1944      1
  1944  1941  1942      1
  1945  1941  1945      1
  1946  1941  1946      1
  1947  1942  1947      1
  1948  1947  1948      1
  1949  1947  1950      1
  1950  1947  1951      1
  1951  1948  1949      1
  1952  1948  1952      1
  1953  1948  1953      1
  1954  1949  1954      1
  1955  1954  1955      1
  1956  1954  1957      1
  1957  1954  1958      1
  1958  1955  1956      1
  1959  1955  1959      1
  1960  1955  1960      1
  1961  1956  1961      1
  1962  1961  1962      1
  1963  1961  1964      1
  1964  1961  1965      1
  1965  1962  1963      1
  1966  1962  1966      1
  1967  1962  1967      1
  1968  1963  1968      1
  1969  1968  1969      1
  1970  1968  1971      1
  1971  1968  1972      1
  1972  1969  1970      1
  1973  1969  1973      1
  1974  1969  1974      1
  1975  1970  1975      1
  1976  1975  1976      1
  1977  1975  1978      1
  1978  1975  1979      1
  1979  1976  1977      1
  1980  1976  1980      1
  1981  1976  1981      1
  1982  1977  1982      1
  1983  1982  1983      1
  1984  1982  1985      1
  1985  1982  1986      1
  1986  1983  1984      1
  1987  1983  1987      1
  1988  1983  1988      1
  1989  1984  1989      1
  1990  1989  1990      1
  1991  1989  1992      1
  1992  1989  1993      1
  1993  1990  1991      1
  1994  1990  1994      1
  1995  1990  1995      1
  1996  1991  1996      1
  1997  1996  1997      1
  1998  1996  1999      1
  1999  1996  2000      1
  2000  1997  1998      1
  2001  1997  2001      1
  2002  1997  2002      1
  2003  1998  2003      1
  2004  2003  2004      1
  2005  2003  2006      1
  2006  2003  2007      1
  2007  2004  2005      1
  2008  2004  2008      1
  2009  2004  2009      1
  2010  2005  2010      1
  2011  2010  2011      1
  2012  2010  2013      1
  2013  2010  2014      1
  2014  2011  2012      1
  2015  2011  2015      1
  2016  2011  2016      1
  2017  2012  2017      1
  2018  2017  2018      1
  2019  2017  2020      1
  2020  2017  2021      1
  2021  2018  2019      1
  2022  2018  2022      1
  2023  2018  2023      1
  2024  2019  2024      1
  2025  2024  2025      1
  2026  2024  2027      1
  2027  2024  2028      1
  2028  2025  2026      1
  2029  2025  2029      1
  2030  2025  2030      1
  2031  2026  2031      1
  2032  2031  2032      1
  2033  2031  2034      1
  2034  2031  2035      1
  2035  2032  2033      1
  2036  2032  2036      1
  2037  2032  2037      1
  2038  2033  2038      1
  2039  2038  2039      1
  2040  2038  2041      1
  2041  2038  2042      1
  2042  2039  2040      1
  2043  2039  2043      1
  2044  2039  2044      1
  2045  2040  2045      1
  2046  2045  2046      1
  2047  2045  2048      1
  2048  2045  2049      1
  2049  2046  2047      1
  2050  2046  2050      1
  2051  2046  2051      1
  2052  2047  2052      1
  2053  2052  2053      1
  2054  2052  2055      1
  2055  2052  2056      1
  2056  2053  2054      1
  2057  2053  2057      1
  2058  2053  2058      1
  2059  2054  2059      1
  2060  2059  2060      1
  2061  2059  2062      1
  2062  2059  2063      1
  2063  2060  2061      1
  2064  2060  2064      1
  2065  2060  2065      1
  2066  2061  2066      1
  2067  2066  2067      1
  2068  2066  2069      1
  2069  2066  2070      1
  2070  2067  2068      1
  2071  2067  2071      1
  2072  2067  2072      1
  2073  2068  2073      1
  2074  2073  2074      1
  2075  2073  2076      1
  2076  2073  2077      1
  2077  2074  2075      1
  2078  2074  2078      1
  2079  2074  2079      1
  2080  2075  2080      1
  2081  2080  2081      1
  2082  2080  2083      1
  2083  2080  2084      1
  2084  2081  2082      1
  2085  2081  2085      1
  2086  2081  2086      1
  2087  2082  2087      1
  2088  2087  2088      1
  2089  2087  2090      1
  2090  2087  2091      1
  2091  2088  2089      1
  2092  2088  2092      1
  2093  2088  2093      1
  2094  2089  2094      1
  2095  2094  2095      1
  2096  2094  2097      1
  2097  2094  2098      1
  2098  2095  2096      1
  2099  2095  2099      1
  2100  2095  2100      1
  2101  2096  2101      1
  2102  2101  2102      1
  2103  2101  2104      1
  2104  2101  2105      1
  2105  2102  2103      1
  2106  2102  2106      1
  2107  2102  2107      1
  2108  2103  2108      1
  2109  2108  2109      1
  2110  2108  2111      1
  2111  2108  2112      1
  2112  2109  2110      1
  2113  2109  2113      1
  2114  2109  2114      1
  2115  2110  2115      1
  2116  2115  2116      1
  2117  2115  2118      1
  2118  2115  2119      1
  2119  2116  2117      1
  2120  2116  2120      1
  2121  2116  2121      1
  2122  2117  2122      1
  2123  2122  2123      1
  2124  2122  2125      1
  2125  2122  2126      1
  2126  2123  2124      1
  2127  2123  2127      1
  2128  2123  2128      1
  2129  2124  2129      1
  2130  2129  2130      1
  2131  2129  2132      1
  2132  2129  2133      1
  2133  2130  2131      1
  2134  2130  2134      1
  2135  2130  2135      1
  2136  2131  2136      1
  2137  2136  2137      1
  2138  2136  2139      1
  2139  2136  2140      1
  2140  2137  2138      1
  2141  2137  2141      1
  2142  2137  2142      1
  2143  2138  2143      1
  2144  2143  2144      1
  2145  2143  2146      1
  2146  2143  2147      1
  2147  2144  2145      1
  2148  2144  2148      1
  2149  2144  2149      1
  2150  2145  2150      1
  2151  2150  2151      1
  2152  2150  2153      1
  2153  2150  2154      1
  2154  2151  2152      1
  2155  2151  2155      1
  2156  2151  2156      1
  2157  2152  2157      1
  2158  2157  2158      1
  2159  2157  2160      1
  2160  2157  2161      1
  2161  2158  2159      1
  2162  2158  2162      1
  2163  2158  2163      1
  2164  2159  2164      1
  2165  2164  2165      1
  2166  2164  2167      1
  2167  2164  2168      1
  2168  2165  2166      1
  2169  2165  2169      1
  2170  2165  2170      1
  2171  2166  2171      1
  2172  2171  2172      1
  2173  2171  2174      1
  2174  2171  2175      1
  2175  2172  2173      1
  2176  2172  2176      1
  2177  2172  2177      1
  2178  2173  2178      1
  2179  2178  2179      1
  2180  2178  2181      1
  2181  2178  2182      1
  2182  2179  2180      1
  2183  2179  2183      1
  2184  2179  2184      1
  2185  2180  2185      1
  2186  2185  2186      1
  2187  2185  2188      1
  2188  2185  2189      1
  2189  2186  2187      1
  2190  2186  2190      1
  2191  2186  2191      1
  2192  2187  2192      1
  2193  2192  2193      1
  2194  2192  2195      1
  2195  2192  2196      1
  2196  2193  2194      1
  2197  2193  2197      1
  2198  2193  2198      1
  2199  2194  2199      1
  2200  2199  2200      1
  2201  2199  2202      1
  2202  2199  2203      1
  2203  2200  2201      1
  2204  2200  2204      1
  2205  2200  2205      1
  2206  2201  2206      1
  2207  2206  2207      1
  2208  2206  2209      1
  2209  2206  2210      1
  2210  2207  2208      1
  2211  2207  2211      1
  2212  2207  2212      1
  2213  2208  2213      1
  2214  2213  2214      1
  2215  2213  2216      1
  2216  2213  2217      1
  2217  2214  2215      1
  2218  2214  2218      1
  2219  2214  2219      1
  2220  2215  2220      1
  2221  2220  2221      1
  2222  2220  2223      1
  2223  2220  2224      1
  2224  2221  2222      1
  2225  2221  2225      1
  2226  2221  2226      1
  2227  2222  2227      1
  2228  2227  2228      1
  2229  2227  2230      1
  2230  2227  2231      1
  2231  2228  2229      1
  2232  2228  2232      1
  2233  2228  2233      1
  2234  2229  2234      1
  2235  2234  2235      1
  2236  2234  2237      1
  2237  2234  2238      1
  2238  2235  2236      1
  2239  2235  2239      1
  2240  2235  2240      1
  2241  2236  2241      1
  2242  2241  2242      1
  2243  2241  2244      1
  2244  2241  2245      1
  2245  2242  2243      1
  2246  2242  2246      1
  2247  2242  2247      1
  2248  2243  2248      1
  2249  2248  2249      1
  2250  2248  2251      1
  2251  2248  2252      1
  2252  2249  2250      1
  2253  2249  2253      1
  2254  2249  2254      1
  2255  2250  2255      1
  2256  2255  2256      1
  2257  2255  2258      1
  2258  2255  2259      1
  2259  2256  2257      1
  2260  2256  2260      1
  2261  2256  2261      1
  2262  2257  2262      1
  2263  2262  2263      1
  2264  2262  2265      1
  2265  2262  2266      1
  2266  2263  2264      1
  2267  2263  2267      1
  2268  2263  2268      1
  2269  2264  2269      1
  2270  2269  2270      1
  2271  2269  2272      1
  2272  2269  2273      1
  2273  2270  2271      1
  2274  2270  2274      1
  2275  2270  2275      1
  2276  2271  2276      1
  2277  2276  2277      1
  2278  2276  2279      1
  2279  2276  2280      1
  2280  2277  2278      1
  2281  2277  2281      1
  2282  2277  2282      1
  2283  2278  2283      1
  2284  2283  2284      1
  2285  2283  2286      1
  2286  2283  2287      1
  2287  2284  2285      1
  2288  2284  2288      1
  2289  2284  2289      1
  2290  2285  2290      1
  2291  2290  2291      1
  2292  2290  2293      1
  2293  2290  2294      1
  2294  2291  2292      1
  2295  2291  2295      1
  2296  2291  2296      1
  2297  2292  2297      1
  2298  2297  2298      1
  2299  2297  2300      1
  2300  2297  2301      1
  2301  2298  2299      1
  2302  2298  2302      1
  2303  2298  2303      1
  2304  2299  2304      1
  2305  2304  2305      1
  2306  2304  2307      1
  2307  2304  2308      1
  2308  2305  2306      1
  2309  2305  2309      1
  2310  2305  2310      1
  2311  2306  2311      1
  2312  2311  2312      1
  2313  2311  2314      1
  2314  2311  2315      1
  2315  2312  2313      1
  2316  2312  2316      1
  2317  2312  2317      1
  2318  2313  2318      1
  2319  2318  2319      1
  2320  2318  2321      1
  2321  2318  2322      1
  2322  2319  2320      1
  2323  2319  2323      1
  2324  2319  2324      1
  2325  2320  2325      1
  2326  2325  2326      1
  2327  2325  2328      1
  2328  2325  2329      1
  2329  2326  2327      1
  2330  2326  2330      1
  2331  2326  2331      1
  2332  2327  2332      1
  2333  2332  2333      1
  2334  2332  2335      1
  2335  2332  2336      1
  2336  2333  2334      1
  2337  2333  2337      1
  2338  2333  2338      1
  2339  2334  2339      1
  2340  2339  2340      1
  2341  2339  2342      1
  2342  2339  2343      1
  2343  2340  2341      1
  2344  2340  2344      1
  2345  2340  2345      1
  2346  2341  2346      1
  2347  2346  2347      1
  2348  2346  2349      1
  2349  2346  2350      1
  2350  2347  2348      1
  2351  2347  2351      1
  2352  2347  2352      1
  2353  2348  2353      1
  2354  2353  2354      1
  2355  2353  2356      1
  2356  2353  2357      1
  2357  2354  2355      1
  2358  2354  2358      1
  2359  2354  2359      1
  2360  2355  2360      1
  2361  2360  2361      1
  2362  2360  2363      1
  2363  2360  2364      1
  2364  2361  2362      1
  2365  2361  2365      1
  2366  2361  2366      1
  2367  2362  2367      1
  2368  2367  2368      1
  2369  2367  2370      1
  2370  2367  2371      1
  2371  2368  2369      1
  2372  2368  2372      1
  2373  2368  2373      1
  2374  2369  2374      1
  2375  2374  2375      1
  2376  2374  2377      1
  2377  2374  2378      1
  2378  2375  2376      1
  2379  2375  2379      1
  2380  2375  2380      1
  2381  2376  2381      1
  2382  2381  2382      1
  2383  2381  2384      1
  2384  2381  2385      1
  2385  2382  2383      1
  2386  2382  2386      1
  2387  2382  2387      1
  2388  2383  2388      1
  2389  2388  2389      1
  2390  2388  2391      1
  2391  2388  2392      1
  2392  2389  2390      1
  2393  2389  2393      1
  2394  2389  2394      1
  2395  2390  2395      1
  2396  2395  2396      1
  2397  2395  2398      1
  2398  2395  2399      1
  2399  2396  2397      1
  2400  2396  2400      1
  2401  2396  2401      1
  2402  2397  2402      1
  2403  2402  2403      1
  2404  2402  2405      1
  2405  2402  2406      1
  2406  2403  2404      1
  2407  2403  2407      1
  2408  2403  2408      1
  2409  2404  2409      1
  2410  2409  2410      1
  2411  2409  2412      1
  2412  2409  2413      1
  2413  2410  2411      1
  2414  2410  2414      1
  2415  2410  2415      1
  2416  2411  2416      1
  2417  2416  2417      1
  2418  2416  2419      1
  2419  2416  2420      1
  2420  2417  2418      1
  2421  2417  2421      1
  2422  2417  2422      1
  2423  2418  2423      1
  2424  2423  2424      1
  2425  2423  2426      1
  2426  2423  2427      1
  2427  2424  2425      1
  2428  2424  2428      1
  2429  2424  2429      1
  2430  2425  2430      1
  2431  2430  2431      1
  2432  2430  2433      1
  2433  2430  2434      1
  2434  2431  2432      1
  2435  2431  2435      1
  2436  2431  2436      1
  2437  2432  2437      1
  2438  2437  2438      1
  2439  2437  2440      1
  2440  2437  2441      1
  2441  2438  2439      1
  2442  2438  2442      1
  2443  2438  2443      1
  2444  2439  2444      1
  2445  2444  2445      1
  2446  2444  2447      1
  2447  2444  2448      1
  2448  2445  2446      1
  2449  2445  2449      1
  2450  2445  2450      1
  2451  2446  2451      1
  2452  2451  2452      1
  2453  2451  2454      1
  2454  2451  2455      1
  2455  2452  2453      1
  2456  2452  2456      1
  2457  2452  2457      1
  2458  2453  2458      1
  2459  2458  2459      1
  2460  2458  2461      1
  2461  2458  2462      1
  2462  2459  2460      1
  2463  2459  2463      1
  2464  2459  2464      1
  2465  2460  2465      1
  2466  2465  2466      1
  2467  2465  2468      1
  2468  2465  2469      1
  2469  2466  2467      1
  2470  2466  2470      1
  2471  2466  2471      1
  2472  2467  2472      1
  2473  2472  2473      1
  2474  2472  2475      1
  2475  2472  2476      1
  2476  2473  2474      1
  2477  2473  2477      1
  2478  2473  2478      1
  2479  2474  2479      1
  2480  2479  2480      1
  2481  2479  2482      1
  2482  2479  2483      1
  2483  2480  2481      1
  2484  2480  2484      1
  2485  2480  2485      1
  2486  2481  2486      1
  2487  2486  2487      1
  2488  2486  2489      1
  2489  2486  2490      1
  2490  2487  2488      1
  2491  2487  2491      1
  2492  2487  2492      1
  2493  2488  2493      1
  2494  2493  2494      1
  2495  2493  2496      1
  2496  2493  2497      1
  2497  2494  2495      1
  2498  2494  2498      1
  2499  2494  2499      1
  2500  2495  2500      1
  2501  2500  2501      1
  2502  2500  2503      1
  2503  2500  2504      1
  2504  2501  2502      1
  2505  2501  2505      1
  2506  2501  2506      1
  2507  2502  2507      1
  2508  2507  2508      1
  2509  2507  2510      1
  2510  2507  2511      1
  2511  2508  2509      1
  2512  2508  2512      1
  2513  2508  2513      1
  2514  2509  2514      1
  2515  2514  2515      1
  2516  2514  2517      1
  2517  2514  2518      1
  2518  2515  2516      1
  2519  2515  2519      1
  2520  2515  2520      1
  2521  2516  2521      1
  2522  2521  2522      1
  2523  2521  2524      1
  2524  2521  2525      1
  2525  2522  2523      1
  2526  2522  2526      1
  2527  2522  2527      1
  2528  2523  2528      1
  2529  2528  2529      1
  2530  2528  2531      1
  2531  2528  2532      1
  2532  2529  2530      1
  2533  2529  2533      1
  2534  2529  2534      1
  2535  2530  2535      1
  2536  2535  2536      1
  2537  2535  2538      1
  2538  2535  2539      1
  2539  2536  2537      1
  2540  2536  2540      1
  2541  2536  2541      1
  2542  2537  2542      1
  2543  2542  2543      1
  2544  2542  2545      1
  2545  2542  2546      1
  2546  2543  2544      1
  2547  2543  2547      1
  2548  2543  2548      1
  2549  2544  2549      1
  2550  2549  2550      1
  2551  2549  2552      1
  2552  2549  2553      1
  2553  2550  2551      1
  2554  2550  2554      1
  2555  2550  2555      1
  2556  2551  2556      1
  2557  2556  2557      1
  2558  2556  2559      1
  2559  2556  2560      1
  2560  2557  2558      1
  2561  2557  2561      1
  2562  2557  2562      1
  2563  2558  2563      1
  2564  2563  2564      1
  2565  2563  2566      1
  2566  2563  2567      1
  2567  2564  2565      1
  2568  2564  2568      1
  2569  2564  2569      1
  2570  2565  2570      1
  2571  2570  2571      1
  2572  2570  2573      1
  2573  2570  2574      1
  2574  2571  2572      1
  2575  2571  2575      1
  2576  2571  2576      1
  2577  2572  2577      1
  2578  2577  2578      1
  2579  2577  2580      1
  2580  2577  2581      1
  2581  2578  2579      1
  2582  2578  2582      1
  2583  2578  2583      1
  2584  2579  2584      1
  2585  2584  2585      1
  2586  2584  2587      1
  2587  2584  2588      1
  2588  2585  2586      1
  2589  2585  2589      1
  2590  2585  2590      1
  2591  2586  2591      1
  2592  2591  2592      1
  2593  2591  2594      1
  2594  2591  2595      1
  2595  2592  2593      1
  2596  2592  2596      1
  2597  2592  2597      1
  2598  2593  2598      1
  2599  2598  2599      1
  2600  2598  2601      1
  2601  2598  2602      1
  2602  2599  2600      1
  2603  2599  2603      1
  2604  2599  2604      1
  2605  2600  2605      1
  2606  2605  2606      1
  2607  2605  2608      1
  2608  2605  2609      1
  2609  2606  2607      1
  2610  2606  2610      1
  2611  2606  2611      1
  2612  2607  2612      1
  2613  2612  2613      1
  2614  2612  2615      1
  2615  2612  2616      1
  2616  2613  2614      1
  2617  2613  2617      1
  2618  2613  2618      1
  2619  2614  2619      1
  2620  2619  2620      1
  2621  2619  2622      1
  2622  2619  2623      1
  2623  2620  2621      1
  2624  2620  2624      1
  2625  2620  2625      1
  2626  2621  2626      1
  2627  2626  2627      1
  2628  2626  2629      1
  2629  2626  2630      1
  2630  2627  2628      1
  2631  2627  2631      1
  2632  2627  2632      1
  2633  2628  2633      1
  2634  2633  2634      1
  2635  2633  2636      1
  2636  2633  2637      1
  2637  2634  2635      1
  2638  2634  2638      1
  2639  2634  2639      1
  2640  2635  2640      1
  2641  2640  2641      1
  2642  2640  2643      1
  2643  2640  2644      1
  2644  2641  2642      1
  2645  2641  2645      1
  2646  2641  2646      1
  2647  2642  2647      1
  2648  2647  2648      1
  2649  2647  2650      1
  2650  2647  2651      1
  2651  2648  2649      1
  2652  2648  2652      1
  2653  2648  2653      1
  2654  2649  2654      1
  2655  2654  2655      1
  2656  2654  2657      1
  2657  2654  2658      1
  2658  2655  2656      1
  2659  2655  2659      1
  2660  2655  2660      1
  2661  2656  2661      1
  2662  2661  2662      1
  2663  2661  2664      1
  2664  2661  2665      1
  2665  2662  2663      1
  2666  2662  2666      1
  2667  2662  2667      1
  2668  2663  2668      1
  2669  2668  2669      1
  2670  2668  2671      1
  2671  2668  2672      1
  2672  2669  2670      1
  2673  2669  2673      1
  2674  2669  2674      1
  2675  2670  2675      1
  2676  2675  2676      1
  2677  2675  2678      1
  2678  2675  2679      1
  2679  2676  2677      1
  2680  2676  2680      1
  2681  2676  2681      1
  2682  2677  2682      1
  2683  2682  2683      1
  2684  2682  2685      1
  2685  2682  2686      1
  2686  2683  2684      1
  2687  2683  2687      1
  2688  2683  2688      1
  2689  2684  2689      1
  2690  2689  2690      1
  2691  2689  2692      1
  2692  2689  2693      1
  2693  2690  2691      1
  2694  2690  2694      1
  2695  2690  2695      1
  2696  2691  2696      1
  2697  2696  2697      1
  2698  2696  2699      1
  2699  2696  2700      1
  2700  2697  2698      1
  2701  2697  2701      1
  2702  2697  2702      1
  2703  2698  2703      1
  2704  2703  2704      1
  2705  2703  2706      1
  2706  2703  2707      1
  2707  2704  2705      1
  2708  2704  2708      1
  2709  2704  2709      1
  2710  2705  2710      1
  2711  2710  2711      1
  2712  2710  2713      1
  2713  2710  2714      1
  2714  2711  2712      1
  2715  2711  2715      1
  2716  2711  2716      1
  2717  2712  2717      1
  2718  2717  2718      1
  2719  2717  2720      1
  2720  2717  2721      1
  2721  2718  2719      1
  2722  2718  2722      1
  2723  2718  2723      1
  2724  2719  2724      1
  2725  2724  2725      1
  2726  2724  2727      1
  2727  2724  2728      1
  2728  2725  2726      1
  2729  2725  2729      1
  2730  2725  2730      1
  2731  2726  2731      1
  2732  2731  2732      1
  2733  2731  2734      1
  2734  2731  2735      1
  2735  2732  2733      1
  2736  2732  2736      1
  2737  2732  2737      1
  2738  2733  2738      1
  2739  2738  2739      1
  2740  2738  2741      1
  2741  2738  2742      1
  2742  2739  2740      1
  2743  2739  2743      1
  2744  2739  2744      1
  2745  2740  2745      1
  2746  2745  2746      1
  2747  2745  2748      1
  2748  2745  2749      1
  2749  2746  2747      1
  2750  2746  2750      1
  2751  2746  2751      1
  2752  2747  2752      1
  2753  2752  2753      1
  2754  2752  2755      1
  2755  2752  2756      1
  2756  2753  2754      1
  2757  2753  2757      1
  2758  2753  2758      1
  2759  2754  2759      1
  2760  2759  2760      1
  2761  2759  2762      1
  2762  2759  2763      1
  2763  2760  2761      1
  2764  2760  2764      1
  2765  2760  2765      1
  2766  2761  2766      1
  2767  2766  2767      1
  2768  2766  2769      1
  2769  2766  2770      1
  2770  2767  2768      1
  2771  2767  2771      1
  2772  2767  2772      1
  2773  2768  2773      1
  2774  2773  2774      1
  2775  2773  2776      1
  2776  2773  2777      1
  2777  2774  2775      1
  2778  2774  2778      1
  2779  2774  2779      1
  2780  2775  2780      1
  2781  2780  2781      1
  2782  2780  2783      1
  2783  2780  2784      1
  2784  2781  2782      1
  2785  2781  2785      1
  2786  2781  2786      1
  2787  2782  2787      1
  2788  2787  2788      1
  2789  2787  2790      1
  2790  2787  2791      1
  2791  2788  2789      1
  2792  2788  2792      1
  2793  2788  2793      1
  2794  2789  2794      1
  2795  2794  2795      1
  2796  2794  2797      1
  2797  2794  2798      1
  2798  2795  2796      1
  2799  2795  2799      1
  2800  2795  2800      1
  2801  2796  2801      1
  2802  2801  2802      1
  2803  2801  2804      1
  2804  2801  2805      1
  2805  2802  2803      1
  2806  2802  2806      1
  2807  2802  2807      1
  2808  2803  2808      1
  2809  2808  2809      1
  2810  2808  2811      1
  2811  2808  2812      1
  2812  2809  2810      1
  2813  2809  2813      1
  2814  2809  2814      1
  2815  2810  2815      1
  2816  2815  2816      1
  2817  2815  2818      1
  2818  2815  2819      1
  2819  2816  2817      1
  2820  2816  2820      1
  2821  2816  2821      1
  2822  2817  2822      1
  2823  2822  2823      1
  2824  2822  2825      1
  2825  2822  2826      1
  2826  2823  2824      1
  2827  2823  2827      1
  2828  2823  2828      1
  2829  2824  2829      1
  2830  2829  2830      1
  2831  2829  2832      1
  2832  2829  2833      1
  2833  2830  2831      1
  2834  2830  2834      1
  2835  2830  2835      1
  2836  2831  2836      1
  2837  2836  2837      1
  2838  2836  2839      1
  2839  2836  2840      1
  2840  2837  2838      1
  2841  2837  2841      1
  2842  2837  2842      1
  2843  2838  2843      1
  2844  2843  2844      1
  2845  2843  2846      1
  2846  2843  2847      1
  2847  2844  2845      1
  2848  2844  2848      1
  2849  2844  2849      1
  2850  2845  2850      1
  2851  2850  2851      1
  2852  2850  2853      1
  2853  2850  2854      1
  2854  2851  2852      1
  2855  2851  2855      1
  2856  2851  2856      1
  2857  2852  2857      1
  2858  2857  2858      1
  2859  2857  2860      1
  2860  2857  2861      1
  2861  2858  2859      1
  2862  2858  2862      1
  2863  2858  2863      1
  2864  2859  2864      1
  2865  2864  2865      1
  2866  2864  2867      1
  2867  2864  2868      1
  2868  2865  2866      1
  2869  2865  2869      1
  2870  2865  2870      1
  2871  2866  2871      1
  2872  2871  2872      1
  2873  2871  2874      1
  2874  2871  2875      1
  2875  2872  2873      1
  2876  2872  2876      1
  2877  2872  2877      1
  2878  2873  2878      1
  2879  2878  2879      1
  2880  2878  2881      1
  2881  2878  2882      1
  2882  2879  2880      1
  2883  2879  2883      1
  2884  2879  2884      1
  2885  2880  2885      1
  2886  2885  2886      1
  2887  2885  2888      1
  2888  2885  2889      1
  2889  2886  2887      1
  2890  2886  2890      1
  2891  2886  2891      1
  2892  2887  2892      1
  2893  2892  2893      1
  2894  2892  2895      1
  2895  2892  2896      1
  2896  2893  2894      1
  2897  2893  2897      1
  2898  2893  2898      1
  2899  2894  2899      1
  2900  2899  2900      1
  2901  2899  2902      1
  2902  2899  2903      1
  2903  2900  2901      1
  2904  2900  2904      1
  2905  2900  2905      1
  2906  2901  2906      1
  2907  2906  2907      1
  2908  2906  2909      1
  2909  2906  2910      1
  2910  2907  2908      1
  2911  2907  2911      1
  2912  2907  2912      1
  2913  2908  2913      1
  2914  2913  2914      1
  2915  2913  2916      1
  2916  2913  2917      1
  2917  2914  2915      1
  2918  2914  2918      1
  2919  2914  2919      1
  2920  2915  2920      1
  2921  2920  2921      1
  2922  2920  2923      1
  2923  2920  2924      1
  2924  2921  2922      1
  2925  2921  2925      1
  2926  2921  2926      1
  2927  2922  2927      1
  2928  2927  2928      1
  2929  2927  2930      1
  2930  2927  2931      1
  2931  2928  2929      1
  2932  2928  2932      1
  2933  2928  2933      1
  2934  2929  2934      1
  2935  2934  2935      1
  2936  2934  2937      1
  2937  2934  2938      1
  2938  2935  2936      1
  2939  2935  2939      1
  2940  2935  2940      1
  2941  2936  2941      1
  2942  2941  2942      1
  2943  2941  2944      1
  2944  2941  2945      1
  2945  2942  2943      1
  2946  2942  2946      1
  2947  2942  2947      1
  2948  2943  2948      1
  2949  2948  2949      1
  2950  2948  2951      1
  2951  2948  2952      1
  2952  2949  2950      1
  2953  2949  2953      1
  2954  2949  2954      1
  2955  2950  2955      1
  2956  2955  2956      1
  2957  2955  2958      1
  2958  2955  2959      1
  2959  2956  2957      1
  2960  2956  2960      1
  2961  2956  2961      1
  2962  2957  2962      1
  2963  2962  2963      1
  2964  2962  2965      1
  2965  2962  2966      1
  2966  2963  2964      1
  2967  2963  2967      1
  2968  2963  2968      1
  2969  2964  2969      1
  2970  2969  2970      1
  2971  2969  2972      1
  2972  2969  2973      1
  2973  2970  2971      1
  2974  2970  2974      1
  2975  2970  2975      1
  2976  2971  2976      1
  2977  2976  2977      1
  2978  2976  2979      1
  2979  2976  2980      1
  2980  2977  2978      1
  2981  2977  2981      1
  2982  2977  2982      1
  2983  2978  2983      1
  2984  2983  2984      1
  2985  2983  2986      1
  2986  2983  2987      1
  2987  2984  2985      1
  2988  2984  2988      1
  2989  2984  2989      1
  2990  2985  2990      1
  2991  2990  2991      1
  2992  2990  2993      1
  2993  2990  2994      1
  2994  2991  2992      1
  2995  2991  2995      1
  2996  2991  2996      1
  2997  2992  2997      1
  2998  2997  2998      1
  2999  2997  3000      1
  3000  2997  3001      1
  3001  2998  2999      1
  3002  2998  3002      1
  3003  2998  3003      1
  3004  2999  3004      1
  3005  3004  3005      1
  3006  3004  3007      1
  3007  3004  3008      1
  3008  3005  3006      1
  3009  3005  3009      1
  3010  3005  3010      1
  3011  3006  3011      1
  3012  3011  3012      1
  3013  3011  3014      1
  3014  3011  3015      1
  3015  3012  3013      1
  3016  3012  3016      1
  3017  3012  3017      1
  3018  3013  3018      1
  3019  3018  3019      1
  3020  3018  3021      1
  3021  3018  3022      1
  3022  3019  3020      1
  3023  3019  3023      1
  3024  3019  3024      1
  3025  3020  3025      1
  3026  3025  3026      1
  3027  3025  3028      1
  3028  3025  3029      1
  3029  3026  3027      1
  3030  3026  3030      1
  3031  3026  3031      1
  3032  3027  3032      1
  3033  3032  3033      1
  3034  3032  3035      1
  3035  3032  3036      1
  3036  3033  3034      1
  3037  3033  3037      1
  3038  3033  3038      1
  3039  3034  3039      1
  3040  3039  3040      1
  3041  3039  3042      1
  3042  3039  3043      1
  3043  3040  3041      1
  3044  3040  3044      1
  3045  3040  3045      1
  3046  3041  3046      1
  3047  3046  3047      1
  3048  3046  3049      1
  3049  3046  3050      1
  3050  3047  3048      1
  3051  3047  3051      1
  3052  3047  3052      1
  3053  3048  3053      1
  3054  3053  3054      1
  3055  3053  3056      1
  3056  3053  3057      1
  3057  3054  3055      1
  3058  3054  3058      1
  3059  3054  3059      1
  3060  3055  3060      1
  3061  3060  3061      1
  3062  3060  3063      1
  3063  3060  3064      1
  3064  3061  3062      1
  3065  3061  3065      1
  3066  3061  3066      1
  3067  3062  3067      1
  3068  3067  3068      1
  3069  3067  3070      1
  3070  3067  3071      1
  3071  3068  3069      1
  3072  3068  3072      1
  3073  3068  3073      1
  3074  3069  3074      1
  3075  3074  3075      1
  3076  3074  3077      1
  3077  3074  3078      1
  3078  3075  3076      1
  3079  3075  3079      1
  3080  3075  3080      1
  3081  3076  3081      1
  3082  3081  3082      1
  3083  3081  3084      1
  3084  3081  3085      1
  3085  3082  3083      1
  3086  3082  3086      1
  3087  3082  3087      1
  3088  3083  3088      1
  3089  3088  3089      1
  3090  3088  3091      1
  3091  3088  3092      1
  3092  3089  3090      1
  3093  3089  3093      1
  3094  3089  3094      1
  3095  3090  3095      1
  3096  3095  3096      1
  3097  3095  3098      1
  3098  3095  3099      1
  3099  3096  3097      1
  3100  3096  3100      1
  3101  3096  3101      1
  3102  3097  3102      1
  3103  3102  3103      1
  3104  3102  3105      1
  3105  3102  3106      1
  3106  3103  3104      1
  3107  3103  3107      1
  3108  3103  3108      1
  3109  3104  3109      1
  3110  3109  3110      1
  3111  3109  3112      1
  3112  3109  3113      1
  3113  3110  3111      1
  3114  3110  3114      1
  3115  3110  3115      1
  3116  3111  3116      1
  3117  3116  3117      1
  3118  3116  3119      1
  3119  3116  3120      1
  3120  3117  3118      1
  3121  3117  3121      1
  3122  3117  3122      1
  3123  3118  3123      1
  3124  3123  3124      1
  3125  3123  3126      1
  3126  3123  3127      1
  3127  3124  3125      1
  3128  3124  3128      1
  3129  3124  3129      1
  3130  3125  3130      1
  3131  3130  3131      1
  3132  3130  3133      1
  3133  3130  3134      1
  3134  3131  3132      1
  3135  3131  3135      1
  3136  3131  3136      1
  3137  3132  3137      1
  3138  3137  3138      1
  3139  3137  3140      1
  3140  3137  3141      1
  3141  3138  3139      1
  3142  3138  3142      1
  3143  3138  3143      1
  3144  3139  3144      1
  3145  3144  3145      1
  3146  3144  3147      1
  3147  3144  3148      1
  3148  3145  3146      1
  3149  3145  3149      1
  3150  3145  3150      1
  3151  3146  3151      1
  3152  3151  3152      1
  3153  3151  3154      1
  3154  3151  3155      1
  3155  3152  3153      1
  3156  3152  3156      1
  3157  3152  3157      1
  3158  3153  3158      1
  3159  3158  3159      1
  3160  3158  3161      1
  3161  3158  3162      1
  3162  3159  3160      1
  3163  3159  3163      1
  3164  3159  3164      1
  3165  3160  3165      1
  3166  3165  3166      1
  3167  3165  3168      1
  3168  3165  3169      1
  3169  3166  3167      1
  3170  3166  3170      1
  3171  3166  3171      1
  3172  3167  3172      1
  3173  3172  3173      1
  3174  3172  3175      1
  3175  3172  3176      1
  3176  3173  3174      1
  3177  3173  3177      1
  3178  3173  3178      1
  3179  3174  3179      1
  3180  3179  3180      1
  3181  3179  3182      1
  3182  3179  3183      1
  3183  3180  3181      1
  3184  3180  3184      1
  3185  3180  3185      1
  3186  3181  3186      1
  3187  3186  3187      1
  3188  3186  3189      1
  3189  3186  3190      1
  3190  3187  3188      1
  3191  3187  3191      1
  3192  3187  3192      1
  3193  3188  3193      1
  3194  3193  3194      1
  3195  3193  3196      1
  3196  3193  3197      1
  3197  3194  3195      1
  3198  3194  3198      1
  3199  3194  3199      1
  3200  3195  3200      1
  3201  3200  3201      1
  3202  3200  3203      1
  3203  3200  3204      1
  3204  3201  3202      1
  3205  3201  3205      1
  3206  3201  3206      1
  3207  3202  3207      1
  3208  3207  3208      1
  3209  3207  3210      1
  3210  3207  3211      1
  3211  3208  3209      1
  3212  3208  3212      1
  3213  3208  3213      1
  3214  3209  3214      1
  3215  3214  3215      1
  3216  3214  3217      1
  3217  3214  3218      1
  3218  3215  3216      1
  3219  3215  3219      1
  3220  3215  3220      1
  3221  3216  3221      1
  3222  3221  3222      1
  3223  3221  3224      1
  3224  3221  3225      1
  3225  3222  3223      1
  3226  3222  3226      1
  3227  3222  3227      1
  3228  3223  3228      1
  3229  3228  3229      1
  3230  3228  3231      1
  3231  3228  3232      1
  3232  3229  3230      1
  3233  3229  3233      1
  3234  3229  3234      1
  3235  3230  3235      1
  3236  3235  3236      1
  3237  3235  3238      1
  3238  3235  3239      1
  3239  3236  3237      1
  3240  3236  3240      1
  3241  3236  3241      1
  3242  3237  3242      1
  3243  3242  3243      1
  3244  3242  3245      1
  3245  3242  3246      1
  3246  3243  3244      1
  3247  3243  3247      1
  3248  3243  3248      1
  3249  3244  3249      1
  3250  3249  3250      1
  3251  3249  3252      1
  3252  3249  3253      1
  3253  3250  3251      1
  3254  3250  3254      1
  3255  3250  3255      1
  3256  3251  3256      1
  3257  3256  3257      1
  3258  3256  3259      1
  3259  3256  3260      1
  3260  3257  3258      1
  3261  3257  3261      1
  3262  3257  3262      1
  3263  3258  3263      1
  3264  3263  3264      1
  3265  3263  3266      1
  3266  3263  3267      1
  3267  3264  3265      1
  3268  3264  3268      1
  3269  3264  3269      1
  3270  3265  3270      1
  3271  3270  3271      1
  3272  3270  3273      1
  3273  3270  3274      1
  3274  3271  3272      1
  3275  3271  3275      1
  3276  3271  3276      1
  3277  3272  3277      1
  3278  3277  3278      1
  3279  3277  3280      1
  3280  3277  3281      1
  3281  3278  3279      1
  3282  3278  3282      1
  3283  3278  3283      1
  3284  3279  3284      1
  3285  3284  3285      1
  3286  3284  3287      1
  3287  3284  3288      1
  3288  3285  3286      1
  3289  3285  3289      1
  3290  3285  3290      1
  3291  3286  3291      1
  3292  3291  3292      1
  3293  3291  3294      1
  3294  3291  3295      1
  3295  3292  3293      1
  3296  3292  3296      1
  3297  3292  3297      1
  3298  3293  3298      1
  3299  3298  3299      1
  3300  3298  3301      1
  3301  3298  3302      1
  3302  3299  3300      1
  3303  3299  3303      1
  3304  3299  3304      1
  3305  3300  3305      1
  3306  3305  3306      1
  3307  3305  3308      1
  3308  3305  3309      1
  3309  3306  3307      1
  3310  3306  3310      1
  3311  3306  3311      1
  3312  3307  3312      1
  3313  3312  3313      1
  3314  3312  3315      1
  3315  3312  3316      1
  3316  3313  3314      1
  3317  3313  3317      1
  3318  3313  3318      1
  3319  3314  3319      1
  3320  3319  3320      1
  3321  3319  3322      1
  3322  3319  3323      1
  3323  3320  3321      1
  3324  3320  3324      1
  3325  3320  3325      1
  3326  3321  3326      1
  3327  3326  3327      1
  3328  3326  3329      1
  3329  3326  3330      1
  3330  3327  3328      1
  3331  3327  3331      1
  3332  3327  3332      1
  3333  3328  3333      1
  3334  3333  3334      1
  3335  3333  3336      1
  3336  3333  3337      1
  3337  3334  3335      1
  3338  3334  3338      1
  3339  3334  3339      1
  3340  3335  3340      1
  3341  3340  3341      1
  3342  3340  3343      1
  3343  3340  3344      1
  3344  3341  3342      1
  3345  3341  3345      1
  3346  3341  3346      1
  3347  3342  3347      1
  3348  3347  3348      1
  3349  3347  3350      1
  3350  3347  3351      1
  3351  3348  3349      1
  3352  3348  3352      1
  3353  3348  3353      1
  3354  3349  3354      1
  3355  3354  3355      1
  3356  3354  3357      1
  3357  3354  3358      1
  3358  3355  3356      1
  3359  3355  3359      1
  3360  3355  3360      1
  3361  3356  3361      1
  3362  3361  3362      1
  3363  3361  3364      1
  3364  3361  3365      1
  3365  3362  3363      1
  3366  3362  3366      1
  3367  3362  3367      1
  3368  3363  3368      1
  3369  3368  3369      1
  3370  3368  3371      1
  3371  3368  3372      1
  3372  3369  3370      1
  3373  3369  3373      1
  3374  3369  3374      1
  3375  3370  3375      1
  3376  3375  3376      1
  3377  3375  3378      1
  3378  3375  3379      1
  3379  3376  3377      1
  3380  3376  3380      1
  3381  3376  3381      1
  3382  3377  3382      1
  3383  3382  3383      1
  3384  3382  3385      1
  3385  3382  3386      1
  3386  3383  3384      1
  3387  3383  3387      1
  3388  3383  3388      1
  3389  3384  3389      1
  3390  3389  3390      1
  3391  3389  3392      1
  3392  3389  3393      1
  3393  3390  3391      1
  3394  3390  3394      1
  3395  3390  3395      1
  3396  3391  3396      1
  3397  3396  3397      1
  3398  3396  3399      1
  3399  3396  3400      1
  3400  3397  3398      1
  3401  3397  3401      1
  3402  3397  3402      1
  3403  3398  3403      1
  3404  3403  3404      1
  3405  3403  3406      1
  3406  3403  3407      1
  3407  3404  3405      1
  3408  3404  3408      1
  3409  3404  3409      1
  3410  3405  3410      1
  3411  3410  3411      1
  3412  3410  3413      1
  3413  3410  3414      1
  3414  3411  3412      1
  3415  3411  3415      1
  3416  3411  3416      1
  3417  3412  3417      1
  3418  3417  3418      1
  3419  3417  3420      1
  3420  3417  3421      1
  3421  3418  3419      1
  3422  3418  3422      1
  3423  3418  3423      1
  3424  3419  3424      1
  3425  3424  3425      1
  3426  3424  3427      1
  3427  3424  3428      1
  3428  3425  3426      1
  3429  3425  3429      1
  3430  3425  3430      1
  3431  3426  3431      1
  3432  3431  3432      1
  3433  3431  3434      1
  3434  3431  3435      1
  3435  3432  3433      1
  3436  3432  3436      1
  3437  3432  3437      1
  3438  3433  3438      1
  3439  3438  3439      1
  3440  3438  3441      1
  3441  3438  3442      1
  3442  3439  3440      1
  3443  3439  3443      1
  3444  3439  3444      1
  3445  3440  3445      1
  3446  3445  3446      1
  3447  3445  3448      1
  3448  3445  3449      1
  3449  3446  3447      1
  3450  3446  3450      1
  3451  3446  3451      1
  3452  3447  3452      1
  3453  3452  3453      1
  3454  3452  3455      1
  3455  3452  3456      1
  3456  3453  3454      1
  3457  3453  3457      1
  3458  3453  3458      1
  3459  3454  3459      1
  3460  3459  3460      1
  3461  3459  3462      1
  3462  3459  3463      1
  3463  3460  3461      1
  3464  3460  3464      1
  3465  3460  3465      1
  3466  3461  3466      1
  3467  3466  3467      1
  3468  3466  3469      1
  3469  3466  3470      1
  3470  3467  3468      1
  3471  3467  3471      1
  3472  3467  3472      1
  3473  3468  3473      1
  3474  3473  3474      1
  3475  3473  3476      1
  3476  3473  3477      1
  3477  3474  3475      1
  3478  3474  3478      1
  3479  3474  3479      1
  3480  3475  3480      1
  3481  3480  3481      1
  3482  3480  3483      1
  3483  3480  3484      1
  3484  3481  3482      1
  3485  3481  3485      1
  3486  3481  3486      1
  3487  3482  3487      1
  3488  3487  3488      1
  3489  3487  3490      1
  3490  3487  3491      1
  3491  3488  3489      1
  3492  3488  3492      1
  3493  3488  3493      1
  3494  3489  3494      1
  3495  3494  3495      1
  3496  3494  3497      1
  3497  3494  3498      1
  3498  3495  3496      1
  3499  3495  3499      1
  3500  3495  3500      1
  3501  3496  3501      1
  3502  3501  3502      1
  3503  3501  3504      1
  3504  3501  3505      1
  3505  3502  3503      1
  3506  3502  3506      1
  3507  3502  3507      1
  3508  3503  3508      1
  3509  3508  3509      1
  3510  3508  3511      1
  3511  3508  3512      1
  3512  3509  3510      1
  3513  3509  3513      1
  3514  3509  3514      1
  3515  3510  3515      1
  3516  3515  3516      1
  3517  3515  3518      1
  3518  3515  3519      1
  3519  3516  3517      1
  3520  3516  3520      1
  3521  3516  3521      1
  3522  3517  3522      1
  3523  3522  3523      1
  3524  3522  3525      1
  3525  3522  3526      1
  3526  3523  3524      1
  3527  3523  3527      1
  3528  3523  3528      1
  3529  3524  3529      1
  3530  3529  3530      1
  3531  3529  3532      1
  3532  3529  3533      1
  3533  3530  3531      1
  3534  3530  3534      1
  3535  3530  3535      1
  3536  3531  3536      1
  3537  3536  3537      1
  3538  3536  3539      1
  3539  3536  3540      1
  3540  3537  3538      1
  3541  3537  3541      1
  3542  3537  3542      1
  3543  3538  3543      1
  3544  3543  3544      1
  3545  3543  3546      1
  3546  3543  3547      1
  3547  3544  3545      1
  3548  3544  3548      1
  3549  3544  3549      1
  3550  3545  3550      1
  3551  3550  3551      1
  3552  3550  3553      1
  3553  3550  3554      1
  3554  3551  3552      1
  3555  3551  3555      1
  3556  3551  3556      1
  3557  3552  3557      1
  3558  3557  3558      1
  3559  3557  3560      1
  3560  3557  3561      1
  3561  3558  3559      1
  3562  3558  3562      1
  3563  3558  3563      1
  3564  3559  3564      1
  3565  3564  3565      1
  3566  3564  3567      1
  3567  3564  3568      1
  3568  3565  3566      1
  3569  3565  3569      1
  3570  3565  3570      1
  3571  3566  3571      1
  3572  3571  3572      1
  3573  3571  3574      1
  3574  3571  3575      1
  3575  3572  3573      1
  3576  3572  3576      1
  3577  3572  3577      1
  3578  3573  3578      1
  3579  3578  3579      1
  3580  3578  3581      1
  3581  3578  3582      1
  3582  3579  3580      1
  3583  3579  3583      1
  3584  3579  3584      1
  3585  3580  3585      1
  3586  3585  3586      1
  3587  3585  3588      1
  3588  3585  3589      1
  3589  3586  3587      1
  3590  3586  3590      1
  3591  3586  3591      1
  3592  3587  3592      1
  3593  3592  3593      1
  3594  3592  3595      1
  3595  3592  3596      1
  3596  3593  3594      1
  3597  3593  3597      1
  3598  3593  3598      1
  3599  3594  3599      1
  3600  3599  3600      1
  3601  3599  3602      1
  3602  3599  3603      1
  3603  3600  3601      1
  3604  3600  3604      1
  3605  3600  3605      1
  3606  3601  3606      1
  3607  3606  3607      1
  3608  3606  3609      1
  3609  3606  3610      1
  3610  3607  3608      1
  3611  3607  3611      1
  3612  3607  3612      1
  3613  3608  3613      1
  3614  3613  3614      1
  3615  3613  3616      1
  3616  3613  3617      1
  3617  3614  3615      1
  3618  3614  3618      1
  3619  3614  3619      1
  3620  3615  3620      1
  3621  3620  3621      1
  3622  3620  3623      1
  3623  3620  3624      1
  3624  3621  3622      1
  3625  3621  3625      1
  3626  3621  3626      1
  3627  3622  3627      1
  3628  3627  3628      1
  3629  3627  3630      1
  3630  3627  3631      1
  3631  3628  3629      1
  3632  3628  3632      1
  3633  3628  3633      1
  3634  3629  3634      1
  3635  3634  3635      1
  3636  3634  3637      1
  3637  3634  3638      1
  3638  3635  3636      1
  3639  3635  3639      1
  3640  3635  3640      1
  3641  3636  3641      1
  3642  3641  3642      1
  3643  3641  3644      1
  3644  3641  3645      1
  3645  3642  3643      1
  3646  3642  3646      1
  3647  3642  3647      1
  3648  3643  3648      1
  3649  3648  3649      1
  3650  3648  3651      1
  3651  3648  3652      1
  3652  3649  3650      1
  3653  3649  3653      1
  3654  3649  3654      1
  3655  3650  3655      1
  3656  3655  3656      1
  3657  3655  3658      1
  3658  3655  3659      1
  3659  3656  3657      1
  3660  3656  3660      1
  3661  3656  3661      1
  3662  3657  3662      1
  3663  3662  3663      1
  3664  3662  3665      1
  3665  3662  3666      1
  3666  3663  3664      1
  3667  3663  3667      1
  3668  3663  3668      1
  3669  3664  3669      1
  3670  3669  3670      1
  3671  3669  3672      1
  3672  3669  3673      1
  3673  3670  3671      1
  3674  3670  3674      1
  3675  3670  3675      1
  3676  3671  3676      1
  3677  3676  3677      1
  3678  3676  3679      1
  3679  3676  3680      1
  3680  3677  3678      1
  3681  3677  3681      1
  3682  3677  3682      1
  3683  3678  3683      1
  3684  3683  3684      1
  3685  3683  3686      1
  3686  3683  3687      1
  3687  3684  3685      1
  3688  3684  3688      1
  3689  3684  3689      1
  3690  3685  3690      1
  3691  3690  3691      1
  3692  3690  3693      1
  3693  3690  3694      1
  3694  3691  3692      1
  3695  3691  3695      1
  3696  3691  3696      1
  3697  3692  3697      1
  3698  3697  3698      1
  3699  3697  3700      1
  3700  3697  3701      1
  3701  3698  3699      1
  3702  3698  3702      1
  3703  3698  3703      1
  3704  3699  3704      1
  3705  3704  3705      1
  3706  3704  3707      1
  3707  3704  3708      1
  3708  3705  3706      1
  3709  3705  3709      1
  3710  3705  3710      1
  3711  3706  3711      1
  3712  3711  3712      1
  3713  3711  3714      1
  3714  3711  3715      1
  3715  3712  3713      1
  3716  3712  3716      1
  3717  3712  3717      1
  3718  3713  3718      1
  3719  3718  3719      1
  3720  3718  3721      1
  3721  3718  3722      1
  3722  3719  3720      1
  3723  3719  3723      1
  3724  3719  3724      1
  3725  3720  3725      1
  3726  3725  3726      1
  3727  3725  3728      1
  3728  3725  3729      1
  3729  3726  3727      1
  3730  3726  3730      1
  3731  3726  3731      1
  3732  3727  3732      1
  3733  3732  3733      1
  3734  3732  3735      1
  3735  3732  3736      1
  3736  3733  3734      1
  3737  3733  3737      1
  3738  3733  3738      1
  3739  3734  3739      1
  3740  3739  3740      1
  3741  3739  3742      1
  3742  3739  3743      1
  3743  3740  3741      1
  3744  3740  3744      1
  3745  3740  3745      1
  3746  3741  3746      1
  3747  3746  3747      1
  3748  3746  3749      1
  3749  3746  3750      1
  3750  3747  3748      1
  3751  3747  3751      1
  3752  3747  3752      1
  3753  3748  3753      1
  3754  3753  3754      1
  3755  3753  3756      1
  3756  3753  3757      1
  3757  3754  3755      1
  3758  3754  3758      1
  3759  3754  3759      1
  3760  3755  3760      1
  3761  3760  3761      1
  3762  3760  3763      1
  3763  3760  3764      1
  3764  3761  3762      1
  3765  3761  3765      1
  3766  3761  3766      1
  3767  3762  3767      1
  3768  3767  3768      1
  3769  3767  3770      1
  3770  3767  3771      1
  3771  3768  3769      1
  3772  3768  3772      1
  3773  3768  3773      1
  3774  3769  3774      1
  3775  3774  3775      1
  3776  3774  3777      1
  3777  3774  3778      1
  3778  3775  3776      1
  3779  3775  3779      1
  3780  3775  3780      1
  3781  3776  3781      1
  3782  3781  3782      1
  3783  3781  3784      1
  3784  3781  3785      1
  3785  3782  3783      1
  3786  3782  3786      1
  3787  3782  3787      1
  3788  3783  3788      1
  3789  3788  3789      1
  3790  3788  3791      1
  3791  3788  3792      1
  3792  3789  3790      1
  3793  3789  3793      1
  3794  3789  3794      1
  3795  3790  3795      1
  3796  3795  3796      1
  3797  3795  3798      1
  3798  3795  3799      1
  3799  3796  3797      1
  3800  3796  3800      1
  3801  3796  3801      1
  3802  3797  3802      1
  3803  3802  3803      1
  3804  3802  3805      1
  3805  3802  3806      1
  3806  3803  3804      1
  3807  3803  3807      1
  3808  3803  3808      1
  3809  3804  3809      1
  3810  3809  3810      1
  3811  3809  3812      1
  3812  3809  3813      1
  3813  3810  3811      1
  3814  3810  3814      1
  3815  3810  3815      1
  3816  3811  3816      1
  3817  3816  3817      1
  3818  3816  3819      1
  3819  3816  3820      1
  3820  3817  3818      1
  3821  3817  3821      1
  3822  3817  3822      1
  3823  3818  3823      1
  3824  3823  3824      1
  3825  3823  3826      1
  3826  3823  3827      1
  3827  3824  3825      1
  3828  3824  3828      1
  3829  3824  3829      1
  3830  3825  3830      1
  3831  3830  3831      1
  3832  3830  3833      1
  3833  3830  3834      1
  3834  3831  3832      1
  3835  3831  3835      1
  3836  3831  3836      1
  3837  3832  3837      1
  3838  3837  3838      1
  3839  3837  3840      1
  3840  3837  3841      1
  3841  3838  3839      1
  3842  3838  3842      1
  3843  3838  3843      1
  3844  3839  3844      1
  3845  3844  3845      1
  3846  3844  3847      1
  3847  3844  3848      1
  3848  3845  3846      1
  3849  3845  3849      1
  3850  3845  3850      1
  3851  3846  3851      1
  3852  3851  3852      1
  3853  3851  3854      1
  3854  3851  3855      1
  3855  3852  3853      1
  3856  3852  3856      1
  3857  3852  3857      1
  3858  3853  3858      1
  3859  3858  3859      1
  3860  3858  3861      1
  3861  3858  3862      1
  3862  3859  3860      1
  3863  3859  3863      1
  3864  3859  3864      1
  3865  3860  3865      1
  3866  3865  3866      1
  3867  3865  3868      1
  3868  3865  3869      1
  3869  3866  3867      1
  3870  3866  3870      1
  3871  3866  3871      1
  3872  3867  3872      1
  3873  3872  3873      1
  3874  3872  3875      1
  3875  3872  3876      1
  3876  3873  3874      1
  3877  3873  3877      1
  3878  3873  3878      1
  3879  3874  3879      1
  3880  3879  3880      1
  3881  3879  3882      1
  3882  3879  3883      1
  3883  3880  3881      1
  3884  3880  3884      1
  3885  3880  3885      1
  3886  3881  3886      1
  3887  3886  3887      1
  3888  3886  3889      1
  3889  3886  3890      1
  3890  3887  3888      1
  3891  3887  3891      1
  3892  3887  3892      1
  3893  3888  3893      1
  3894  3893  3894      1
  3895  3893  3896      1
  3896  3893  3897      1
  3897  3894  3895      1
  3898  3894  3898      1
  3899  3894  3899      1
  3900  3895  3900      1
  3901  3900  3901      1
  3902  3900  3903      1
  3903  3900  3904      1
  3904  3901  3902      1
  3905  3901  3905      1
  3906  3901  3906      1
  3907  3902  3907      1
  3908  3907  3908      1
  3909  3907  3910      1
  3910  3907  3911      1
  3911  3908  3909      1
  3912  3908  3912      1
  3913  3908  3913      1
  3914  3909  3914      1
  3915  3914  3915      1
  3916  3914  3917      1
  3917  3914  3918      1
  3918  3915  3916      1
  3919  3915  3919      1
  3920  3915  3920      1
  3921  3916  3921      1
  3922  3921  3922      1
  3923  3921  3924      1
  3924  3921  3925      1
  3925  3922  3923      1
  3926  3922  3926      1
  3927  3922  3927      1
  3928  3923  3928      1
  3929  3928  3929      1
  3930  3928  3931      1
  3931  3928  3932      1
  3932  3929  3930      1
  3933  3929  3933      1
  3934  3929  3934      1
  3935  3930  3935      1
  3936  3935  3936      1
  3937  3935  3938      1
  3938  3935  3939      1
  3939  3936  3937      1
  3940  3936  3940      1
  3941  3936  3941      1
  3942  3937  3942      1
  3943  3942  3943      1
  3944  3942  3945      1
  3945  3942  3946      1
  3946  3943  3944      1
  3947  3943  3947      1
  3948  3943  3948      1
  3949  3944  3949      1
  3950  3949  3950      1
  3951  3949  3952      1
  3952  3949  3953      1
  3953  3950  3951      1
  3954  3950  3954      1
  3955  3950  3955      1
  3956  3951  3956      1
  3957  3956  3957      1
  3958  3956  3959      1
  3959  3956  3960      1
  3960  3957  3958      1
  3961  3957  3961      1
  3962  3957  3962      1
  3963  3958  3963      1
  3964  3963  3964      1
  3965  3963  3966      1
  3966  3963  3967      1
  3967  3964  3965      1
  3968  3964  3968      1
  3969  3964  3969      1
  3970  3965  3970      1
  3971  3970  3971      1
  3972  3970  3973      1
  3973  3970  3974      1
  3974  3971  3972      1
  3975  3971  3975      1
  3976  3971  3976      1
  3977  3972  3977      1
  3978  3977  3978      1
  3979  3977  3980      1
  3980  3977  3981      1
  3981  3978  3979      1
  3982  3978  3982      1
  3983  3978  3983      1
  3984  3979  3984      1
  3985  3984  3985      1
  3986  3984  3987      1
  3987  3984  3988      1
  3988  3985  3986      1
  3989  3985  3989      1
  3990  3985  3990      1
  3991  3986  3991      1
  3992  3991  3992      1
  3993  3991  3994      1
  3994  3991  3995      1
  3995  3992  3993      1
  3996  3992  3996      1
  3997  3992  3997      1
  3998  3993  3998      1
  3999  3998  3999      1
  4000  3998  4001      1
  4001  3998  4002      1
  4002  3999  4000      1
  4003  3999  4003      1
  4004  3999  4004      1
  4005  4000  4005      1
  4006  4005  4006      1
  4007  4005  4008      1
  4008  4005  4009      1
  4009  4006  4007      1
  4010  4006  4010      1
  4011  4006  4011      1
  4012  4007  4012      1
  4013  4012  4013      1
  4014  4012  4015      1
  4015  4012  4016      1
  4016  4013  4014      1
  4017  4013  4017      1
  4018  4013  4018      1
  4019  4014  4019      1
  4020  4019  4020      1
  4021  4019  4022      1
  4022  4019  4023      1
  4023  4020  4021      1
  4024  4020  4024      1
  4025  4020  4025      1
  4026  4021  4026      1
  4027  4026  4027      1
  4028  4026  4029      1
  4029  4026  4030      1
  4030  4027  4028      1
  4031  4027  4031      1
  4032  4027  4032      1
  4033  4028  4033      1
  4034  4033  4034      1
  4035  4033  4036      1
  4036  4033  4037      1
  4037  4034  4035      1
  4038  4034  4038      1
  4039  4034  4039      1
  4040  4035  4040      1
  4041  4040  4041      1
  4042  4040  4043      1
  4043  4040  4044      1
  4044  4041  4042      1
  4045  4041  4045      1
  4046  4041  4046      1
  4047  4042  4047      1
  4048  4047  4048      1
  4049  4047  4050      1
  4050  4047  4051      1
  4051  4048  4049      1
  4052  4048  4052      1
  4053  4048  4053      1
  4054  4049  4054      1
  4055  4054  4055      1
  4056  4054  4057      1
  4057  4054  4058      1
  4058  4055  4056      1
  4059  4055  4059      1
  4060  4055  4060      1
  4061  4056  4061      1
  4062  4061  4062      1
  4063  4061  4064      1
  4064  4061  4065      1
  4065  4062  4063      1
  4066  4062  4066      1
  4067  4062  4067      1
  4068  4063  4068      1
  4069  4068  4069      1
  4070  4068  4071      1
  4071  4068  4072      1
  4072  4069  4070      1
  4073  4069  4073      1
  4074  4069  4074      1
  4075  4070  4075      1
  4076  4075  4076      1
  4077  4075  4078      1
  4078  4075  4079      1
  4079  4076  4077      1
  4080  4076  4080      1
  4081  4076  4081      1
  4082  4077  4082      1
  4083  4082  4083      1
  4084  4082  4085      1
  4085  4082  4086      1
  4086  4083  4084      1
  4087  4083  4087      1
  4088  4083  4088      1
  4089  4084  4089      1
  4090  4089  4090      1
  4091  4089  4092      1
  4092  4089  4093      1
  4093  4090  4091      1
  4094  4090  4094      1
  4095  4090  4095      1
  4096  4091  4096      1
  4097  4096  4097      1
  4098  4096  4099      1
  4099  4096  4100      1
  4100  4097  4098      1
  4101  4097  4101      1
  4102  4097  4102      1
  4103  4098  4103      1
  4104  4103  4104      1
  4105  4103  4106      1
  4106  4103  4107      1
  4107  4104  4105      1
  4108  4104  4108      1
  4109  4104  4109      1
  4110  4105  4110      1
  4111  4110  4111      1
  4112  4110  4113      1
  4113  4110  4114      1
  4114  4111  4112      1
  4115  4111  4115      1
  4116  4111  4116      1
  4117  4112  4117      1
  4118  4117  4118      1
  4119  4117  4120      1
  4120  4117  4121      1
  4121  4118  4119      1
  4122  4118  4122      1
  4123  4118  4123      1
  4124  4119  4124      1
  4125  4124  4125      1
  4126  4124  4127      1
  4127  4124  4128      1
  4128  4125  4126      1
  4129  4125  4129      1
  4130  4125  4130      1
  4131  4126  4131      1
  4132  4131  4132      1
  4133  4131  4134      1
  4134  4131  4135      1
  4135  4132  4133      1
  4136  4132  4136      1
  4137  4132  4137      1
  4138  4133  4138      1
  4139  4138  4139      1
  4140  4138  4141      1
  4141  4138  4142      1
  4142  4139  4140      1
  4143  4139  4143      1
  4144  4139  4144      1
  4145  4140  4145      1
  4146  4145  4146      1
  4147  4145  4148      1
  4148  4145  4149      1
  4149  4146  4147      1
  4150  4146  4150      1
  4151  4146  4151      1
  4152  4147  4152      1
  4153  4152  4153      1
  4154  4152  4155      1
  4155  4152  4156      1
  4156  4153  4154      1
  4157  4153  4157      1
  4158  4153  4158      1
  4159  4154  4159      1
  4160  4159  4160      1
  4161  4159  4162      1
  4162  4159  4163      1
  4163  4160  4161      1
  4164  4160  4164      1
  4165  4160  4165      1
  4166  4161  4166      1
  4167  4166  4167      1
  4168  4166  4169      1
  4169  4166  4170      1
  4170  4167  4168      1
  4171  4167  4171      1
  4172  4167  4172      1
  4173  4168  4173      1
  4174  4173  4174      1
  4175  4173  4176      1
  4176  4173  4177      1
  4177  4174  4175      1
  4178  4174  4178      1
  4179  4174  4179      1
  4180  4175  4180      1
  4181  4180  4181      1
  4182  4180  4183      1
  4183  4180  4184      1
  4184  4181  4182      1
  4185  4181  4185      1
  4186  4181  4186      1
  4187  4182  4187      1
  4188  4187  4188      1
  4189  4187  4190      1
  4190  4187  4191      1
  4191  4188  4189      1
  4192  4188  4192      1
  4193  4188  4193      1
  4194  4189  4194      1
  4195  4194  4195      1
  4196  4194  4197      1
  4197  4194  4198      1
  4198  4195  4196      1
  4199  4195  4199      1
  4200  4195  4200      1
  4201  4196  4201      1
  4202  4201  4202      1
  4203  4201  4204      1
  4204  4201  4205      1
  4205  4202  4203      1
  4206  4202  4206      1
  4207  4202  4207      1
  4208  4203  4208      1
  4209  4208  4209      1
  4210  4208  4211      1
  4211  4208  4212      1
  4212  4209  4210      1
  4213  4209  4213      1
  4214  4209  4214      1
  4215  4210  4215      1
  4216  4215  4216      1
  4217  4215  4218      1
  4218  4215  4219      1
  4219  4216  4217      1
  4220  4216  4220      1
  4221  4216  4221      1
  4222  4217  4222      1
  4223  4222  4223      1
  4224  4222  4225      1
  4225  4222  4226      1
  4226  4223  4224      1
  4227  4223  4227      1
  4228  4223  4228      1
  4229  4224  4229      1
  4230  4229  4230      1
  4231  4229  4232      1
  4232  4229  4233      1
  4233  4230  4231      1
  4234  4230  4234      1
  4235  4230  4235      1
  4236  4231  4236      1
  4237  4236  4237      1
  4238  4236  4239      1
  4239  4236  4240      1
  4240  4237  4238      1
  4241  4237  4241      1
  4242  4237  4242      1
  4243  4238  4243      1
  4244  4243  4244      1
  4245  4243  4246      1
  4246  4243  4247      1
  4247  4244  4245      1
  4248  4244  4248      1
  4249  4244  4249      1
  4250  4245  4250      1
  4251  4250  4251      1
  4252  4250  4253      1
  4253  4250  4254      1
  4254  4251  4252      1
  4255  4251  4255      1
  4256  4251  4256      1
  4257  4252  4257      1
  4258  4257  4258      1
  4259  4257  4260      1
  4260  4257  4261      1
  4261  4258  4259      1
  4262  4258  4262      1
  4263  4258  4263      1
  4264  4259  4264      1
  4265  4264  4265      1
  4266  4264  4267      1
  4267  4264  4268      1
  4268  4265  4266      1
  4269  4265  4269      1
  4270  4265  4270      1
  4271  4266  4271      1
  4272  4271  4272      1
  4273  4271  4274      1
  4274  4271  4275      1
  4275  4272  4273      1
  4276  4272  4276      1
  4277  4272  4277      1
  4278  4273  4278      1
  4279  4278  4279      1
  4280  4278  4281      1
  4281  4278  4282      1
  4282  4279  4280      1
  4283  4279  4283      1
  4284  4279  4284      1
  4285  4280  4285      1
  4286  4285  4286      1
  4287  4285  4288      1
  4288  4285  4289      1
  4289  4286  4287      1
  4290  4286  4290      1
  4291  4286  4291      1
  4292  4287  4292      1
  4293  4292  4293      1
  4294  4292  4295      1
  4295  4292  4296      1
  4296  4293  4294      1
  4297  4293  4297      1
  4298  4293  4298      1
  4299  4294  4299      1
  4300  4299  4300      1
  4301  4299  4302      1
  4302  4299  4303      1
  4303  4300  4301      1
  4304  4300  4304      1
  4305  4300  4305      1
  4306  4301  4306      1
  4307  4306  4307      1
  4308  4306  4309      1
  4309  4306  4310      1
  4310  4307  4308      1
  4311  4307  4311      1
  4312  4307  4312      1
  4313  4308  4313      1
  4314  4313  4314      1
  4315  4313  4316      1
  4316  4313  4317      1
  4317  4314  4315      1
  4318  4314  4318      1
  4319  4314  4319      1
  4320  4315  4320      1
  4321  4320  4321      1
  4322  4320  4323      1
  4323  4320  4324      1
  4324  4321  4322      1
  4325  4321  4325      1
  4326  4321  4326      1
  4327  4322  4327      1
  4328  4327  4328      1
  4329  4327  4330      1
  4330  4327  4331      1
  4331  4328  4329      1
  4332  4328  4332      1
  4333  4328  4333      1
  4334  4329  4334      1
  4335  4334  4335      1
  4336  4334  4337      1
  4337  4334  4338      1
  4338  4335  4336      1
  4339  4335  4339      1
  4340  4335  4340      1
  4341  4336  4341      1
  4342  4341  4342      1
  4343  4341  4344      1
  4344  4341  4345      1
  4345  4342  4343      1
  4346  4342  4346      1
  4347  4342  4347      1
  4348  4343  4348      1
  4349  4348  4349      1
  4350  4348  4351      1
  4351  4348  4352      1
  4352  4349  4350      1
  4353  4349  4353      1
  4354  4349  4354      1
  4355  4350  4355      1
  4356  4355  4356      1
  4357  4355  4358      1
  4358  4355  4359      1
  4359  4356  4357      1
  4360  4356  4360      1
  4361  4356  4361      1
  4362  4357  4362      1
  4363  4362  4363      1
  4364  4362  4365      1
  4365  4362  4366      1
  4366  4363  4364      1
  4367  4363  4367      1
  4368  4363  4368      1
  4369  4364  4369      1
  4370  4369  4370      1
  4371  4369  4372      1
  4372  4369  4373      1
  4373  4370  4371      1
  4374  4370  4374      1
  4375  4370  4375      1
  4376  4371  4376      1
  4377  4376  4377      1
  4378  4376  4379      1
  4379  4376  4380      1
  4380  4377  4378      1
  4381  4377  4381      1
  4382  4377  4382      1
  4383  4378  4383      1
  4384  4383  4384      1
  4385  4383  4386      1
  4386  4383  4387      1
  4387  4384  4385      1
  4388  4384  4388      1
  4389  4384  4389      1
  4390  4385  4390      1
  4391  4390  4391      1
  4392  4390  4393      1
  4393  4390  4394      1
  4394  4391  4392      1
  4395  4391  4395      1
  4396  4391  4396      1
  4397  4392  4397      1
  4398  4397  4398      1
  4399  4397  4400      1
  4400  4397  4401      1
  4401  4398  4399      1
  4402  4398  4402      1
  4403  4398  4403      1
  4404  4399  4404      1
  4405  4404  4405      1
  4406  4404  4407      1
  4407  4404  4408      1
  4408  4405  4406      1
  4409  4405  4409      1
  4410  4405  4410      1
  4411  4406  4411      1
  4412  4411  4412      1
  4413  4411  4414      1
  4414  4411  4415      1
  4415  4412  4413      1
  4416  4412  4416      1
  4417  4412  4417      1
  4418  4413  4418      1
  4419  4418  4419      1
  4420  4418  4421      1
  4421  4418  4422      1
  4422  4419  4420      1
  4423  4419  4423      1
  4424  4419  4424      1
  4425  4420  4425      1
  4426  4425  4426      1
  4427  4425  4428      1
  4428  4425  4429      1
  4429  4426  4427      1
  4430  4426  4430      1
  4431  4426  4431      1
  4432  4427  4432      1
  4433  4432  4433      1
  4434  4432  4435      1
  4435  4432  4436      1
  4436  4433  4434      1
  4437  4433  4437      1
  4438  4433  4438      1
  4439  4434  4439      1
  4440  4439  4440      1
  4441  4439  4442      1
  4442  4439  4443      1
  4443  4440  4441      1
  4444  4440  4444      1
  4445  4440  4445      1
  4446  4441  4446      1
  4447  4446  4447      1
  4448  4446  4449      1
  4449  4446  4450      1
  4450  4447  4448      1
  4451  4447  4451      1
  4452  4447  4452      1
  4453  4448  4453      1
  4454  4453  4454      1
  4455  4453  4456      1
  4456  4453  4457      1
  4457  4454  4455      1
  4458  4454  4458      1
  4459  4454  4459      1
  4460  4455  4460      1
  4461  4460  4461      1
  4462  4460  4463      1
  4463  4460  4464      1
  4464  4461  4462      1
  4465  4461  4465      1
  4466  4461  4466      1
  4467  4462  4467      1
  4468  4467  4468      1
  4469  4467  4470      1
  4470  4467  4471      1
  4471  4468  4469      1
  4472  4468  4472      1
  4473  4468  4473      1
  4474  4469  4474      1
  4475  4474  4475      1
  4476  4474  4477      1
  4477  4474  4478      1
  4478  4475  4476      1
  4479  4475  4479      1
  4480  4475  4480      1
  4481  4476  4481      1
  4482  4481  4482      1
  4483  4481  4484      1
  4484  4481  4485      1
  4485  4482  4483      1
  4486  4482  4486      1
  4487  4482  4487      1
  4488  4483  4488      1
  4489  4488  4489      1
  4490  4488  4491      1
  4491  4488  4492      1
  4492  4489  4490      1
  4493  4489  4493      1
  4494  4489  4494      1
  4495  4490  4495      1
  4496  4495  4496      1
  4497  4495  4498      1
  4498  4495  4499      1
  4499  4496  4497      1
  4500  4496  4500      1
  4501  4496  4501      1
  4502  4497  4502      1
  4503  4502  4503      1
  4504  4502  4505      1
  4505  4502  4506      1
  4506  4503  4504      1
  4507  4503  4507      1
  4508  4503  4508      1
  4509  4504  4509      1
  4510  4509  4510      1
  4511  4509  4512      1
  4512  4509  4513      1
  4513  4510  4511      1
  4514  4510  4514      1
  4515  4510  4515      1
  4516  4511  4516      1
  4517  4516  4517      1
  4518  4516  4519      1
  4519  4516  4520      1
  4520  4517  4518      1
  4521  4517  4521      1
  4522  4517  4522      1
  4523  4518  4523      1
  4524  4523  4524      1
  4525  4523  4526      1
  4526  4523  4527      1
  4527  4524  4525      1
  4528  4524  4528      1
  4529  4524  4529      1
  4530  4525  4530      1
  4531  4530  4531      1
  4532  4530  4533      1
  4533  4530  4534      1
  4534  4531  4532      1
  4535  4531  4535      1
  4536  4531  4536      1
  4537  4532  4537      1
  4538  4537  4538      1
  4539  4537  4540      1
  4540  4537  4541      1
  4541  4538  4539      1
  4542  4538  4542      1
  4543  4538  4543      1
  4544  4539  4544      1
  4545  4544  4545      1
  4546  4544  4547      1
  4547  4544  4548      1
  4548  4545  4546      1
  4549  4545  4549      1
  4550  4545  4550      1
  4551  4546  4551      1
  4552  4551  4552      1
  4553  4551  4554      1
  4554  4551  4555      1
  4555  4552  4553      1
  4556  4552  4556      1
  4557  4552  4557      1
  4558  4553  4558      1
  4559  4558  4559      1
  4560  4558  4561      1
  4561  4558  4562      1
  4562  4559  4560      1
  4563  4559  4563      1
  4564  4559  4564      1
  4565  4560  4565      1
  4566  4565  4566      1
  4567  4565  4568      1
  4568  4565  4569      1
  4569  4566  4567      1
  4570  4566  4570      1
  4571  4566  4571      1
  4572  4567  4572      1
  4573  4572  4573      1
  4574  4572  4575      1
  4575  4572  4576      1
  4576  4573  4574      1
  4577  4573  4577      1
  4578  4573  4578      1
  4579  4574  4579      1
  4580  4579  4580      1
  4581  4579  4582      1
  4582  4579  4583      1
  4583  4580  4581      1
  4584  4580  4584      1
  4585  4580  4585      1
  4586  4581  4586      1
  4587  4586  4587      1
  4588  4586  4589      1
  4589  4586  4590      1
  4590  4587  4588      1
  4591  4587  4591      1
  4592  4587  4592      1
  4593  4588  4593      1
  4594  4593  4594      1
  4595  4593  4596      1
  4596  4593  4597      1
  4597  4594  4595      1
  4598  4594  4598      1
  4599  4594  4599      1
  4600  4595  4600      1
  4601  4600  4601      1
  4602  4600  4603      1
  4603  4600  4604      1
  4604  4601  4602      1
  4605  4601  4605      1
  4606  4601  4606      1
  4607  4602  4607      1
  4608  4607  4608      1
  4609  4607  4610      1
  4610  4607  4611      1
  4611  4608  4609      1
  4612  4608  4612      1
  4613  4608  4613      1
  4614  4609  4614      1
  4615  4614  4615      1
  4616  4614  4617      1
  4617  4614  4618      1
  4618  4615  4616      1
  4619  4615  4619      1
  4620  4615  4620      1
  4621  4616  4621      1
  4622  4621  4622      1
  4623  4621  4624      1
  4624  4621  4625      1
  4625  4622  4623      1
  4626  4622  4626      1
  4627  4622  4627      1
  4628  4623  4628      1
  4629  4628  4629      1
  4630  4628  4631      1
  4631  4628  4632      1
  4632  4629  4630      1
  4633  4629  4633      1
  4634  4629  4634      1
  4635  4630  4635      1
  4636  4635  4636      1
  4637  4635  4638      1
  4638  4635  4639      1
  4639  4636  4637      1
  4640  4636  4640      1
  4641  4636  4641      1
  4642  4637  4642      1
  4643  4642  4643      1
  4644  4642  4645      1
  4645  4642  4646      1
  4646  4643  4644      1
  4647  4643  4647      1
  4648  4643  4648      1
  4649  4644  4649      1
  4650  4649  4650      1
  4651  4649  4652      1
  4652  4649  4653      1
  4653  4650  4651      1
  4654  4650  4654      1
  4655  4650  4655      1
  4656  4651  4656      1
  4657  4656  4657      1
  4658  4656  4659      1
  4659  4656  4660      1
  4660  4657  4658      1
  4661  4657  4661      1
  4662  4657  4662      1
  4663  4658  4663      1
  4664  4663  4664      1
  4665  4663  4666      1
  4666  4663  4667      1
  4667  4664  4665      1
  4668  4664  4668      1
  4669  4664  4669      1
  4670  4665  4670      1
  4671  4670  4671      1
  4672  4670  4673      1
  4673  4670  4674      1
  4674  4671  4672      1
  4675  4671  4675      1
  4676  4671  4676      1
  4677  4672  4677      1
  4678  4677  4678      1
  4679  4677  4680      1
  4680  4677  4681      1
  4681  4678  4679      1
  4682  4678  4682      1
  4683  4678  4683      1
  4684  4679  4684      1
  4685  4684  4685      1
  4686  4684  4687      1
  4687  4684  4688      1
  4688  4685  4686      1
  4689  4685  4689      1
  4690  4685  4690      1
  4691  4686  4691      1
  4692  4691  4692      1
  4693  4691  4694      1
  4694  4691  4695      1
  4695  4692  4693      1
  4696  4692  4696      1
  4697  4692  4697      1
  4698  4693  4698      1
  4699  4698  4699      1
  4700  4698  4701      1
  4701  4698  4702      1
  4702  4699  4700      1
  4703  4699  4703      1
  4704  4699  4704      1
  4705  4700  4705      1
  4706  4705  4706      1
  4707  4705  4708      1
  4708  4705  4709      1
  4709  4706  4707      1
  4710  4706  4710      1
  4711  4706  4711      1
  4712  4707  4712      1
  4713  4712  4713      1
  4714  4712  4715      1
  4715  4712  4716      1
  4716  4713  4714      1
  4717  4713  4717      1
  4718  4713  4718      1
  4719  4714  4719      1
  4720  4719  4720      1
  4721  4719  4722      1
  4722  4719  4723      1
  4723  4720  4721      1
  4724  4720  4724      1
  4725  4720  4725      1
  4726  4721  4726      1
  4727  4726  4727      1
  4728  4726  4729      1
  4729  4726  4730      1
  4730  4727  4728      1
  4731  4727  4731      1
  4732  4727  4732      1
  4733  4728  4733      1
  4734  4733  4734      1
  4735  4733  4736      1
  4736  4733  4737      1
  4737  4734  4735      1
  4738  4734  4738      1
  4739  4734  4739      1
  4740  4735  4740      1
  4741  4740  4741      1
  4742  4740  4743      1
  4743  4740  4744      1
  4744  4741  4742      1
  4745  4741  4745      1
  4746  4741  4746      1
  4747  4742  4747      1
  4748  4747  4748      1
  4749  4747  4750      1
  4750  4747  4751      1
  4751  4748  4749      1
  4752  4748  4752      1
  4753  4748  4753      1
  4754  4749  4754      1
  4755  4754  4755      1
  4756  4754  4757      1
  4757  4754  4758      1
  4758  4755  4756      1
  4759  4755  4759      1
  4760  4755  4760      1
  4761  4756  4761      1
  4762  4761  4762      1
  4763  4761  4764      1
  4764  4761  4765      1
  4765  4762  4763      1
  4766  4762  4766      1
  4767  4762  4767      1
  4768  4763  4768      1
  4769  4768  4769      1
  4770  4768  4771      1
  4771  4768  4772      1
  4772  4769  4770      1
  4773  4769  4773      1
  4774  4769  4774      1
  4775  4770  4775      1
  4776  4775  4776      1
  4777  4775  4778      1
  4778  4775  4779      1
  4779  4776  4777      1
  4780  4776  4780      1
  4781  4776  4781      1
  4782  4777  4782      1
  4783  4782  4783      1
  4784  4782  4785      1
  4785  4782  4786      1
  4786  4783  4784      1
  4787  4783  4787      1
  4788  4783  4788      1
  4789  4784  4789      1
  4790  4789  4790      1
  4791  4789  4792      1
  4792  4789  4793      1
  4793  4790  4791      1
  4794  4790  4794      1
  4795  4790  4795      1
  4796  4791  4796      1
  4797  4796  4797      1
  4798  4796  4799      1
  4799  4796  4800      1
  4800  4797  4798      1
  4801  4797  4801      1
  4802  4797  4802      1
  4803  4798  4803      1
  4804  4803  4804      1
  4805  4803  4806      1
  4806  4803  4807      1
  4807  4804  4805      1
  4808  4804  4808      1
  4809  4804  4809      1
  4810  4805  4810      1
  4811  4810  4811      1
  4812  4810  4813      1
  4813  4810  4814      1
  4814  4811  4812      1
  4815  4811  4815      1
  4816  4811  4816      1
  4817  4812  4817      1
  4818  4817  4818      1
  4819  4817  4820      1
  4820  4817  4821      1
  4821  4818  4819      1
  4822  4818  4822      1
  4823  4818  4823      1
  4824  4819  4824      1
  4825  4824  4825      1
  4826  4824  4827      1
  4827  4824  4828      1
  4828  4825  4826      1
  4829  4825  4829      1
  4830  4825  4830      1
  4831  4826  4831      1
  4832  4831  4832      1
  4833  4831  4834      1
  4834  4831  4835      1
  4835  4832  4833      1
  4836  4832  4836      1
  4837  4832  4837      1
  4838  4833  4838      1
  4839  4838  4839      1
  4840  4838  4841      1
  4841  4838  4842      1
  4842  4839  4840      1
  4843  4839  4843      1
  4844  4839  4844      1
  4845  4840  4845      1
  4846  4845  4846      1
  4847  4845  4848      1
  4848  4845  4849      1
  4849  4846  4847      1
  4850  4846  4850      1
  4851  4846  4851      1
  4852  4847  4852      1
  4853  4852  4853      1
  4854  4852  4855      1
  4855  4852  4856      1
  4856  4853  4854      1
  4857  4853  4857      1
  4858  4853  4858      1
  4859  4854  4859      1
  4860  4859  4860      1
  4861  4859  4862      1
  4862  4859  4863      1
  4863  4860  4861      1
  4864  4860  4864      1
  4865  4860  4865      1
  4866  4861  4866      1
  4867  4866  4867      1
  4868  4866  4869      1
  4869  4866  4870      1
  4870  4867  4868      1
  4871  4867  4871      1
  4872  4867  4872      1
  4873  4868  4873      1
  4874  4873  4874      1
  4875  4873  4876      1
  4876  4873  4877      1
  4877  4874  4875      1
  4878  4874  4878      1
  4879  4874  4879      1
  4880  4875  4880      1
  4881  4880  4881      1
  4882  4880  4883      1
  4883  4880  4884      1
  4884  4881  4882      1
  4885  4881  4885      1
  4886  4881  4886      1
  4887  4882  4887      1
  4888  4887  4888      1
  4889  4887  4890      1
  4890  4887  4891      1
  4891  4888  4889      1
  4892  4888  4892      1
  4893  4888  4893      1
  4894  4889  4894      1
  4895  4894  4895      1
  4896  4894  4897      1
  4897  4894  4898      1
  4898  4895  4896      1
  4899  4895  4899      1
  4900  4895  4900      1
  4901  4896  4901      1
  4902  4901  4902      1
  4903  4901  4904      1
  4904  4901  4905      1
  4905  4902  4903      1
  4906  4902  4906      1
  4907  4902  4907      1
  4908  4903  4908      1
  4909  4908  4909      1
  4910  4908  4911      1
  4911  4908  4912      1
  4912  4909  4910      1
  4913  4909  4913      1
  4914  4909  4914      1
  4915  4910  4915      1
  4916  4915  4916      1
  4917  4915  4918      1
  4918  4915  4919      1
  4919  4916  4917      1
  4920  4916  4920      1
  4921  4916  4921      1
  4922  4917  4922      1
  4923  4922  4923      1
  4924  4922  4925      1
  4925  4922  4926      1
  4926  4923  4924      1
  4927  4923  4927      1
  4928  4923  4928      1
  4929  4924  4929      1
  4930  4929  4930      1
  4931  4929  4932      1
  4932  4929  4933      1
  4933  4930  4931      1
  4934  4930  4934      1
  4935  4930  4935      1
  4936  4931  4936      1
  4937  4936  4937      1
  4938  4936  4939      1
  4939  4936  4940      1
  4940  4937  4938      1
  4941  4937  4941      1
  4942  4937  4942      1
  4943  4938  4943      1
  4944  4943  4944      1
  4945  4943  4946      1
  4946  4943  4947      1
  4947  4944  4945      1
  4948  4944  4948      1
  4949  4944  4949      1
  4950  4945  4950      1
  4951  4950  4951      1
  4952  4950  4953      1
  4953  4950  4954      1
  4954  4951  4952      1
  4955  4951  4955      1
  4956  4951  4956      1
  4957  4952  4957      1
  4958  4957  4958      1
  4959  4957  4960      1
  4960  4957  4961      1
  4961  4958  4959      1
  4962  4958  4962      1
  4963  4958  4963      1
  4964  4959  4964      1
  4965  4964  4965      1
  4966  4964  4967      1
  4967  4964  4968      1
  4968  4965  4966      1
  4969  4965  4969      1
  4970  4965  4970      1
  4971  4966  4971      1
  4972  4971  4972      1
  4973  4971  4974      1
  4974  4971  4975      1
  4975  4972  4973      1
  4976  4972  4976      1
  4977  4972  4977      1
  4978  4973  4978      1
  4979  4978  4979      1
  4980  4978  4981      1
  4981  4978  4982      1
  4982  4979  4980      1
  4983  4979  4983      1
  4984  4979  4984      1
  4985  4980  4985      1
  4986  4985  4986      1
  4987  4985  4988      1
  4988  4985  4989      1
  4989  4986  4987      1
  4990  4986  4990      1
  4991  4986  4991      1
  4992  4987  4992      1
  4993  4992  4993      1
  4994  4992  4995      1
  4995  4992  4996      1
  4996  4993  4994      1
  4997  4993  4997      1
  4998  4993  4998      1
  4999  4994  4999      1
  5000  4999  5000      1
  5001  4999  5002      1
  5002  4999  5003      1
  5003  5000  5001      1
  5004  5000  5004      1
  5005  5000  5005      1
  5006  5001  5006      1
  5007  5006  5007      1
  5008  5006  5009      1
  5009  5006  5010      1
  5010  5007  5008      1
  5011  5007  5011      1
  5012  5007  5012      1
  5013  5008  5013      1
  5014  5013  5014      1
  5015  5013  5016      1
  5016  5013  5017      1
  5017  5014  5015      1
  5018  5014  5018      1
  5019  5014  5019      1
  5020  5015  5020      1
  5021  5020  5021      1
  5022  5020  5023      1
  5023  5020  5024      1
  5024  5021  5022      1
  5025  5021  5025      1
  5026  5021  5026      1
  5027  5022  5027      1
  5028  5027  5028      1
  5029  5027  5030      1
  5030  5027  5031      1
  5031  5028  5029      1
  5032  5028  5032      1
  5033  5028  5033      1
  5034  5029  5034      1
  5035  5034  5035      1
  5036  5034  5037      1
  5037  5034  5038      1
  5038  5035  5036      1
  5039  5035  5039      1
  5040  5035  5040      1
  5041  5036  5041      1
  5042  5041  5042      1
  5043  5041  5044      1
  5044  5041  5045      1
  5045  5042  5043      1
  5046  5042  5046      1
  5047  5042  5047      1
  5048  5043  5048      1
  5049  5048  5049      1
  5050  5048  5051      1
  5051  5048  5052      1
  5052  5049  5050      1
  5053  5049  5053      1
  5054  5049  5054      1
  5055  5050  5055      1
  5056  5055  5056      1
  5057  5055  5058      1
  5058  5055  5059      1
  5059  5056  5057      1
  5060  5056  5060      1
  5061  5056  5061      1
  5062  5057  5062      1
  5063  5062  5063      1
  5064  5062  5065      1
  5065  5062  5066      1
  5066  5063  5064      1
  5067  5063  5067      1
  5068  5063  5068      1
  5069  5064  5069      1
  5070  5069  5070      1
  5071  5069  5072      1
  5072  5069  5073      1
  5073  5070  5071      1
  5074  5070  5074      1
  5075  5070  5075      1
  5076  5071  5076      1
  5077  5076  5077      1
  5078  5076  5079      1
  5079  5076  5080      1
  5080  5077  5078      1
  5081  5077  5081      1
  5082  5077  5082      1
  5083  5078  5083      1
  5084  5083  5084      1
  5085  5083  5086      1
  5086  5083  5087      1
  5087  5084  5085      1
  5088  5084  5088      1
  5089  5084  5089      1
  5090  5085  5090      1
  5091  5090  5091      1
  5092  5090  5093      1
  5093  5090  5094      1
  5094  5091  5092      1
  5095  5091  5095      1
  5096  5091  5096      1
  5097  5092  5097      1
  5098  5097  5098      1
  5099  5097  5100      1
  5100  5097  5101      1
  5101  5098  5099      1
  5102  5098  5102      1
  5103  5098  5103      1
  5104  5099  5104      1
  5105  5104  5105      1
  5106  5104  5107      1
  5107  5104  5108      1
  5108  5105  5106      1
  5109  5105  5109      1
  5110  5105  5110      1
  5111  5106  5111      1
  5112  5111  5112      1
  5113  5111  5114      1
  5114  5111  5115      1
  5115  5112  5113      1
  5116  5112  5116      1
  5117  5112  5117      1
  5118  5113  5118      1
  5119  5118  5119      1
  5120  5118  5121      1
  5121  5118  5122      1
  5122  5119  5120      1
  5123  5119  5123      1
  5124  5119  5124      1
  5125  5120  5125      1
  5126  5125  5126      1
  5127  5125  5128      1
  5128  5125  5129      1
  5129  5126  5127      1
  5130  5126  5130      1
  5131  5126  5131      1
  5132  5127  5132      1
  5133  5132  5133      1
  5134  5132  5135      1
  5135  5132  5136      1
  5136  5133  5134      1
  5137  5133  5137      1
  5138  5133  5138      1
  5139  5134  5139      1
  5140  5139  5140      1
  5141  5139  5142      1
  5142  5139  5143      1
  5143  5140  5141      1
  5144  5140  5144      1
  5145  5140  5145      1
  5146  5141  5146      1
  5147  5146  5147      1
  5148  5146  5149      1
  5149  5146  5150      1
  5150  5147  5148      1
  5151  5147  5151      1
  5152  5147  5152      1
  5153  5148  5153      1
  5154  5153  5154      1
  5155  5153  5156      1
  5156  5153  5157      1
  5157  5154  5155      1
  5158  5154  5158      1
  5159  5154  5159      1
  5160  5155  5160      1
  5161  5160  5161      1
  5162  5160  5163      1
  5163  5160  5164      1
  5164  5161  5162      1
  5165  5161  5165      1
  5166  5161  5166      1
  5167  5162  5167      1
  5168  5167  5168      1
  5169  5167  5170      1
  5170  5167  5171      1
  5171  5168  5169      1
  5172  5168  5172      1
  5173  5168  5173      1
  5174  5169  5174      1
  5175  5174  5175      1
  5176  5174  5177      1
  5177  5174  5178      1
  5178  5175  5176      1
  5179  5175  5179      1
  5180  5175  5180      1
  5181  5176  5181      1
  5182  5181  5182      1
  5183  5181  5184      1
  5184  5181  5185      1
  5185  5182  5183      1
  5186  5182  5186      1
  5187  5182  5187      1
  5188  5183  5188      1
  5189  5188  5189      1
  5190  5188  5191      1
  5191  5188  5192      1
  5192  5189  5190      1
  5193  5189  5193      1
  5194  5189  5194      1
  5195  5190  5195      1
  5196  5195  5196      1
  5197  5195  5198      1
  5198  5195  5199      1
  5199  5196  5197      1
  5200  5196  5200      1
  5201  5196  5201      1
  5202  5197  5202      1
  5203  5202  5203      1
  5204  5202  5205      1
  5205  5202  5206      1
  5206  5203  5204      1
  5207  5203  5207      1
  5208  5203  5208      1
  5209  5204  5209      1
  5210  5209  5210      1
  5211  5209  5212      1
  5212  5209  5213      1
  5213  5210  5211      1
  5214  5210  5214      1
  5215  5210  5215      1
  5216  5211  5216      1
  5217  5216  5217      1
  5218  5216  5219      1
  5219  5216  5220      1
  5220  5217  5218      1
  5221  5217  5221      1
  5222  5217  5222      1
  5223  5218  5223      1
  5224  5223  5224      1
  5225  5223  5226      1
  5226  5223  5227      1
  5227  5224  5225      1
  5228  5224  5228      1
  5229  5224  5229      1
  5230  5225  5230      1
  5231  5230  5231      1
  5232  5230  5233      1
  5233  5230  5234      1
  5234  5231  5232      1
  5235  5231  5235      1
  5236  5231  5236      1
  5237  5232  5237      1
  5238  5237  5238      1
  5239  5237  5240      1
  5240  5237  5241      1
  5241  5238  5239      1
  5242  5238  5242      1
  5243  5238  5243      1
  5244  5239  5244      1
  5245  5244  5245      1
  5246  5244  5247      1
  5247  5244  5248      1
  5248  5245  5246      1
  5249  5245  5249      1
  5250  5245  5250      1
  5251  5246  5251      1
  5252  5251  5252      1
  5253  5251  5254      1
  5254  5251  5255      1
  5255  5252  5253      1
  5256  5252  5256      1
  5257  5252  5257      1
  5258  5253  5258      1
  5259  5258  5259      1
  5260  5258  5261      1
  5261  5258  5262      1
  5262  5259  5260      1
  5263  5259  5263      1
  5264  5259  5264      1
  5265  5260  5265      1
  5266  5265  5266      1
  5267  5265  5268      1
  5268  5265  5269      1
  5269  5266  5267      1
  5270  5266  5270      1
  5271  5266  5271      1
  5272  5267  5272      1
  5273  5272  5273      1
  5274  5272  5275      1
  5275  5272  5276      1
  5276  5273  5274      1
  5277  5273  5277      1
  5278  5273  5278      1
  5279  5274  5279      1
  5280  5279  5280      1
  5281  5279  5282      1
  5282  5279  5283      1
  5283  5280  5281      1
  5284  5280  5284      1
  5285  5280  5285      1
  5286  5281  5286      1
  5287  5286  5287      1
  5288  5286  5289      1
  5289  5286  5290      1
  5290  5287  5288      1
  5291  5287  5291      1
  5292  5287  5292      1
  5293  5288  5293      1
  5294  5293  5294      1
  5295  5293  5296      1
  5296  5293  5297      1
  5297  5294  5295      1
  5298  5294  5298      1
  5299  5294  5299      1
  5300  5295  5300      1
  5301  5300  5301      1
  5302  5300  5303      1
  5303  5300  5304      1
  5304  5301  5302      1
  5305  5301  5305      1
  5306  5301  5306      1
  5307  5302  5307      1
  5308  5307  5308      1
  5309  5307  5310      1
  5310  5307  5311      1
  5311  5308  5309      1
  5312  5308  5312      1
  5313  5308  5313      1
  5314  5309  5314      1
  5315  5314  5315      1
  5316  5314  5317      1
  5317  5314  5318      1
  5318  5315  5316      1
  5319  5315  5319      1
  5320  5315  5320      1
  5321  5316  5321      1
  5322  5321  5322      1
  5323  5321  5324      1
  5324  5321  5325      1
  5325  5322  5323      1
  5326  5322  5326      1
  5327  5322  5327      1
  5328  5323  5328      1
  5329  5328  5329      1
  5330  5328  5331      1
  5331  5328  5332      1
  5332  5329  5330      1
  5333  5329  5333      1
  5334  5329  5334      1
  5335  5330  5335      1
  5336  5335  5336      1
  5337  5335  5338      1
  5338  5335  5339      1
  5339  5336  5337      1
  5340  5336  5340      1
  5341  5336  5341      1
  5342  5337  5342      1
  5343  5342  5343      1
  5344  5342  5345      1
  5345  5342  5346      1
  5346  5343  5344      1
  5347  5343  5347      1
  5348  5343  5348      1
  5349  5344  5349      1
  5350  5349  5350      1
  5351  5349  5352      1
  5352  5349  5353      1
  5353  5350  5351      1
  5354  5350  5354      1
  5355  5350  5355      1
  5356  5351  5356      1
  5357  5356  5357      1
  5358  5356  5359      1
  5359  5356  5360      1
  5360  5357  5358      1
  5361  5357  5361      1
  5362  5357  5362      1
  5363  5358  5363      1
  5364  5363  5364      1
  5365  5363  5366      1
  5366  5363  5367      1
  5367  5364  5365      1
  5368  5364  5368      1
  5369  5364  5369      1
  5370  5365  5370      1
  5371  5370  5371      1
  5372  5370  5373      1
  5373  5370  5374      1
  5374  5371  5372      1
  5375  5371  5375      1
  5376  5371  5376      1
  5377  5372  5377      1
  5378  5377  5378      1
  5379  5377  5380      1
  5380  5377  5381      1
  5381  5378  5379      1
  5382  5378  5382      1
  5383  5378  5383      1
  5384  5379  5384      1
  5385  5384  5385      1
  5386  5384  5387      1
  5387  5384  5388      1
  5388  5385  5386      1
  5389  5385  5389      1
  5390  5385  5390      1
  5391  5386  5391      1
  5392  5391  5392      1
  5393  5391  5394      1
  5394  5391  5395      1
  5395  5392  5393      1
  5396  5392  5396      1
  5397  5392  5397      1
  5398  5393  5398      1
  5399  5398  5399      1
  5400  5398  5401      1
  5401  5398  5402      1
  5402  5399  5400      1
  5403  5399  5403      1
  5404  5399  5404      1
  5405  5400  5405      1
  5406  5405  5406      1
  5407  5405  5408      1
  5408  5405  5409      1
  5409  5406  5407      1
  5410  5406  5410      1
  5411  5406  5411      1
  5412  5407  5412      1
  5413  5412  5413      1
  5414  5412  5415      1
  5415  5412  5416      1
  5416  5413  5414      1
  5417  5413  5417      1
  5418  5413  5418      1
  5419  5414  5419      1
  5420  5419  5420      1
  5421  5419  5422      1
  5422  5419  5423      1
  5423  5420  5421      1
  5424  5420  5424      1
  5425  5420  5425      1
  5426  5421  5426      1
  5427  5426  5427      1
  5428  5426  5429      1
  5429  5426  5430      1
  5430  5427  5428      1
  5431  5427  5431      1
  5432  5427  5432      1
  5433  5428  5433      1
  5434  5433  5434      1
  5435  5433  5436      1
  5436  5433  5437      1
  5437  5434  5435      1
  5438  5434  5438      1
  5439  5434  5439      1
  5440  5435  5440      1
  5441  5440  5441      1
  5442  5440  5443      1
  5443  5440  5444      1
  5444  5441  5442      1
  5445  5441  5445      1
  5446  5441  5446      1
  5447  5442  5447      1
  5448  5447  5448      1
  5449  5447  5450      1
  5450  5447  5451      1
  5451  5448  5449      1
  5452  5448  5452      1
  5453  5448  5453      1
  5454  5449  5454      1
  5455  5454  5455      1
  5456  5454  5457      1
  5457  5454  5458      1
  5458  5455  5456      1
  5459  5455  5459      1
  5460  5455  5460      1
  5461  5456  5461      1
  5462  5461  5462      1
  5463  5461  5464      1
  5464  5461  5465      1
  5465  5462  5463      1
  5466  5462  5466      1
  5467  5462  5467      1
  5468  5463  5468      1
  5469  5468  5469      1
  5470  5468  5471      1
  5471  5468  5472      1
  5472  5469  5470      1
  5473  5469  5473      1
  5474  5469  5474      1
  5475  5470  5475      1
  5476  5475  5476      1
  5477  5475  5478      1
  5478  5475  5479      1
  5479  5476  5477      1
  5480  5476  5480      1
  5481  5476  5481      1
  5482  5477  5482      1
  5483  5482  5483      1
  5484  5482  5485      1
  5485  5482  5486      1
  5486  5483  5484      1
  5487  5483  5487      1
  5488  5483  5488      1
  5489  5484  5489      1
  5490  5489  5490      1
  5491  5489  5492      1
  5492  5489  5493      1
  5493  5490  5491      1
  5494  5490  5494      1
  5495  5490  5495      1
  5496  5491  5496      1
  5497  5496  5497      1
  5498  5496  5499      1
  5499  5496  5500      1
  5500  5497  5498      1
  5501  5497  5501      1
  5502  5497  5502      1
  5503  5498  5503      1
  5504  5503  5504      1
  5505  5503  5506      1
  5506  5503  5507      1
  5507  5504  5505      1
  5508  5504  5508      1
  5509  5504  5509      1
  5510  5505  5510      1
  5511  5510  5511      1
  5512  5510  5513      1
  5513  5510  5514      1
  5514  5511  5512      1
  5515  5511  5515      1
  5516  5511  5516      1
  5517  5512  5517      1
  5518  5517  5518      1
  5519  5517  5520      1
  5520  5517  5521      1
  5521  5518  5519      1
  5522  5518  5522      1
  5523  5518  5523      1
  5524  5519  5524      1
  5525  5524  5525      1
  5526  5524  5527      1
  5527  5524  5528      1
  5528  5525  5526      1
  5529  5525  5529      1
  5530  5525  5530      1
  5531  5526  5531      1
  5532  5531  5532      1
  5533  5531  5534      1
  5534  5531  5535      1
  5535  5532  5533      1
  5536  5532  5536      1
  5537  5532  5537      1
  5538  5533  5538      1
  5539  5538  5539      1
  5540  5538  5541      1
  5541  5538  5542      1
  5542  5539  5540      1
  5543  5539  5543      1
  5544  5539  5544      1
  5545  5540  5545      1
  5546  5545  5546      1
  5547  5545  5548      1
  5548  5545  5549      1
  5549  5546  5547      1
  5550  5546  5550      1
  5551  5546  5551      1
  5552  5547  5552      1
  5553  5552  5553      1
  5554  5552  5555      1
  5555  5552  5556      1
  5556  5553  5554      1
  5557  5553  5557      1
  5558  5553  5558      1
  5559  5554  5559      1
  5560  5559  5560      1
  5561  5559  5562      1
  5562  5559  5563      1
  5563  5560  5561      1
  5564  5560  5564      1
  5565  5560  5565      1
  5566  5561  5566      1
  5567  5566  5567      1
  5568  5566  5569      1
  5569  5566  5570      1
  5570  5567  5568      1
  5571  5567  5571      1
  5572  5567  5572      1
  5573  5568  5573      1
  5574  5573  5574      1
  5575  5573  5576      1
  5576  5573  5577      1
  5577  5574  5575      1
  5578  5574  5578      1
  5579  5574  5579      1
  5580  5575  5580      1
  5581  5580  5581      1
  5582  5580  5583      1
  5583  5580  5584      1
  5584  5581  5582      1
  5585  5581  5585      1
  5586  5581  5586      1
  5587  5582  5587      1
  5588  5587  5588      1
  5589  5587  5590      1
  5590  5587  5591      1
  5591  5588  5589      1
  5592  5588  5592      1
  5593  5588  5593      1
  5594  5589  5594      1
  5595  5594  5595      1
  5596  5594  5597      1
  5597  5594  5598      1
  5598  5595  5596      1
  5599  5595  5599      1
  5600  5595  5600      1
  5601  5596  5601      1
  5602  5601  5602      1
  5603  5601  5604      1
  5604  5601  5605      1
  5605  5602  5603      1
  5606  5602  5606      1
  5607  5602  5607      1
  5608  5603  5608      1
  5609  5608  5609      1
  5610  5608  5611      1
  5611  5608  5612      1
  5612  5609  5610      1
  5613  5609  5613      1
  5614  5609  5614      1
  5615  5610  5615      1
  5616  5615  5616      1
  5617  5615  5618      1
  5618  5615  5619      1
  5619  5616  5617      1
  5620  5616  5620      1
  5621  5616  5621      1
  5622  5617  5622      1
  5623  5622  5623      1
  5624  5622  5625      1
  5625  5622  5626      1
  5626  5623  5624      1
  5627  5623  5627      1
  5628  5623  5628      1
  5629  5624  5629      1
  5630  5629  5630      1
  5631  5629  5632      1
  5632  5629  5633      1
  5633  5630  5631      1
  5634  5630  5634      1
  5635  5630  5635      1
  5636  5631  5636      1
  5637  5636  5637      1
  5638  5636  5639      1
  5639  5636  5640      1
  5640  5637  5638      1
  5641  5637  5641      1
  5642  5637  5642      1
  5643  5638  5643      1
  5644  5643  5644      1
  5645  5643  5646      1
  5646  5643  5647      1
  5647  5644  5645      1
  5648  5644  5648      1
  5649  5644  5649      1
  5650  5645  5650      1
  5651  5650  5651      1
  5652  5650  5653      1
  5653  5650  5654      1
  5654  5651  5652      1
  5655  5651  5655      1
  5656  5651  5656      1
  5657  5652  5657      1
  5658  5657  5658      1
  5659  5657  5660      1
  5660  5657  5661      1
  5661  5658  5659      1
  5662  5658  5662      1
  5663  5658  5663      1
  5664  5659  5664      1
  5665  5664  5665      1
  5666  5664  5667      1
  5667  5664  5668      1
  5668  5665  5666      1
  5669  5665  5669      1
  5670  5665  5670      1
  5671  5666  5671      1
  5672  5671  5672      1
  5673  5671  5674      1
  5674  5671  5675      1
  5675  5672  5673      1
  5676  5672  5676      1
  5677  5672  5677      1
  5678  5673  5678      1
  5679  5678  5679      1
  5680  5678  5681      1
  5681  5678  5682      1
  5682  5679  5680      1
  5683  5679  5683      1
  5684  5679  5684      1
  5685  5680  5685      1
  5686  5685  5686      1
  5687  5685  5688      1
  5688  5685  5689      1
  5689  5686  5687      1
  5690  5686  5690      1
  5691  5686  5691      1
  5692  5687  5692      1
  5693  5692  5693      1
  5694  5692  5695      1
  5695  5692  5696      1
  5696  5693  5694      1
  5697  5693  5697      1
  5698  5693  5698      1
  5699  5694  5699      1
  5700  5699  5700      1
  5701  5699  5702      1
  5702  5699  5703      1
  5703  5700  5701      1
  5704  5700  5704      1
  5705  5700  5705      1
  5706  5701  5706      1
  5707  5706  5707      1
  5708  5706  5709      1
  5709  5706  5710      1
  5710  5707  5708      1
  5711  5707  5711      1
  5712  5707  5712      1
  5713  5708  5713      1
  5714  5713  5714      1
  5715  5713  5716      1
  5716  5713  5717      1
  5717  5714  5715      1
  5718  5714  5718      1
  5719  5714  5719      1
  5720  5715  5720      1
  5721  5720  5721      1
  5722  5720  5723      1
  5723  5720  5724      1
  5724  5721  5722      1
  5725  5721  5725      1
  5726  5721  5726      1
  5727  5722  5727      1
  5728  5727  5728      1
  5729  5727  5730      1
  5730  5727  5731      1
  5731  5728  5729      1
  5732  5728  5732      1
  5733  5728  5733      1
  5734  5729  5734      1
  5735  5734  5735      1
  5736  5734  5737      1
  5737  5734  5738      1
  5738  5735  5736      1
  5739  5735  5739      1
  5740  5735  5740      1
  5741  5736  5741      1
  5742  5741  5742      1
  5743  5741  5744      1
  5744  5741  5745      1
  5745  5742  5743      1
  5746  5742  5746      1
  5747  5742  5747      1
  5748  5743  5748      1
  5749  5748  5749      1
  5750  5748  5751      1
  5751  5748  5752      1
  5752  5749  5750      1
  5753  5749  5753      1
  5754  5749  5754      1
  5755  5750  5755      1
  5756  5755  5756      1
  5757  5755  5758      1
  5758  5755  5759      1
  5759  5756  5757      1
  5760  5756  5760      1
  5761  5756  5761      1
  5762  5757  5762      1
  5763  5762  5763      1
  5764  5762  5765      1
  5765  5762  5766      1
  5766  5763  5764      1
  5767  5763  5767      1
  5768  5763  5768      1
  5769  5764  5769      1
  5770  5769  5770      1
  5771  5769  5772      1
  5772  5769  5773      1
  5773  5770  5771      1
  5774  5770  5774      1
  5775  5770  5775      1
  5776  5771  5776      1
  5777  5776  5777      1
  5778  5776  5779      1
  5779  5776  5780      1
  5780  5777  5778      1
  5781  5777  5781      1
  5782  5777  5782      1
  5783  5778  5783      1
  5784  5783  5784      1
  5785  5783  5786      1
  5786  5783  5787      1
  5787  5784  5785      1
  5788  5784  5788      1
  5789  5784  5789      1
  5790  5785  5790      1
  5791  5790  5791      1
  5792  5790  5793      1
  5793  5790  5794      1
  5794  5791  5792      1
  5795  5791  5795      1
  5796  5791  5796      1
  5797  5792  5797      1
  5798  5797  5798      1
  5799  5797  5800      1
  5800  5797  5801      1
  5801  5798  5799      1
  5802  5798  5802      1
  5803  5798  5803      1
  5804  5799  5804      1
  5805  5804  5805      1
  5806  5804  5807      1
  5807  5804  5808      1
  5808  5805  5806      1
  5809  5805  5809      1
  5810  5805  5810      1
  5811  5806  5811      1
  5812  5811  5812      1
  5813  5811  5814      1
  5814  5811  5815      1
  5815  5812  5813      1
  5816  5812  5816      1
  5817  5812  5817      1
  5818  5813  5818      1
  5819  5818  5819      1
  5820  5818  5821      1
  5821  5818  5822      1
  5822  5819  5820      1
  5823  5819  5823      1
  5824  5819  5824      1
  5825  5820  5825      1
  5826  5825  5826      1
  5827  5825  5828      1
  5828  5825  5829      1
  5829  5826  5827      1
  5830  5826  5830      1
  5831  5826  5831      1
  5832  5827  5832      1
  5833  5832  5833      1
  5834  5832  5835      1
  5835  5832  5836      1
  5836  5833  5834      1
  5837  5833  5837      1
  5838  5833  5838      1
  5839  5834  5839      1
  5840  5839  5840      1
  5841  5839  5842      1
  5842  5839  5843      1
  5843  5840  5841      1
  5844  5840  5844      1
  5845  5840  5845      1
  5846  5841  5846      1
  5847  5846  5847      1
  5848  5846  5849      1
  5849  5846  5850      1
  5850  5847  5848      1
  5851  5847  5851      1
  5852  5847  5852      1
  5853  5848  5853      1
  5854  5853  5854      1
  5855  5853  5856      1
  5856  5853  5857      1
  5857  5854  5855      1
  5858  5854  5858      1
  5859  5854  5859      1
  5860  5855  5860      1
  5861  5860  5861      1
  5862  5860  5863      1
  5863  5860  5864      1
  5864  5861  5862      1
  5865  5861  5865      1
  5866  5861  5866      1
  5867  5862  5867      1
  5868  5867  5868      1
  5869  5867  5870      1
  5870  5867  5871      1
  5871  5868  5869      1
  5872  5868  5872      1
  5873  5868  5873      1
  5874  5869  5874      1
  5875  5874  5875      1
  5876  5874  5877      1
  5877  5874  5878      1
  5878  5875  5876      1
  5879  5875  5879      1
  5880  5875  5880      1
  5881  5876  5881      1
  5882  5881  5882      1
  5883  5881  5884      1
  5884  5881  5885      1
  5885  5882  5883      1
  5886  5882  5886      1
  5887  5882  5887      1
  5888  5883  5888      1
  5889  5888  5889      1
  5890  5888  5891      1
  5891  5888  5892      1
  5892  5889  5890      1
  5893  5889  5893      1
  5894  5889  5894      1
  5895  5890  5895      1
  5896  5895  5896      1
  5897  5895  5898      1
  5898  5895  5899      1
  5899  5896  5897      1
  5900  5896  5900      1
  5901  5896  5901      1
  5902  5897  5902      1
  5903  5902  5903      1
  5904  5902  5905      1
  5905  5902  5906      1
  5906  5903  5904      1
  5907  5903  5907      1
  5908  5903  5908      1
  5909  5904  5909      1
  5910  5909  5910      1
  5911  5909  5912      1
  5912  5909  5913      1
  5913  5910  5911      1
  5914  5910  5914      1
  5915  5910  5915      1
  5916  5911  5916      1
  5917  5916  5917      1
  5918  5916  5919      1
  5919  5916  5920      1
  5920  5917  5918      1
  5921  5917  5921      1
  5922  5917  5922      1
  5923  5918  5923      1
  5924  5923  5924      1
  5925  5923  5926      1
  5926  5923  5927      1
  5927  5924  5925      1
  5928  5924  5928      1
  5929  5924  5929      1
  5930  5925  5930      1
  5931  5930  5931      1
  5932  5930  5933      1
  5933  5930  5934      1
  5934  5931  5932      1
  5935  5931  5935      1
  5936  5931  5936      1
  5937  5932  5937      1
  5938  5937  5938      1
  5939  5937  5940      1
  5940  5937  5941      1
  5941  5938  5939      1
  5942  5938  5942      1
  5943  5938  5943      1
  5944  5939  5944      1
  5945  5944  5945      1
  5946  5944  5947      1
  5947  5944  5948      1
  5948  5945  5946      1
  5949  5945  5949      1
  5950  5945  5950      1
  5951  5946  5951      1
  5952  5951  5952      1
  5953  5951  5954      1
  5954  5951  5955      1
  5955  5952  5953      1
  5956  5952  5956      1
  5957  5952  5957      1
  5958  5953  5958      1
  5959  5958  5959      1
  5960  5958  5961      1
  5961  5958  5962      1
  5962  5959  5960      1
  5963  5959  5963      1
  5964  5959  5964      1
  5965  5960  5965      1
  5966  5965  5966      1
  5967  5965  5968      1
  5968  5965  5969      1
  5969  5966  5967      1
  5970  5966  5970      1
  5971  5966  5971      1
  5972  5967  5972      1
  5973  5972  5973      1
  5974  5972  5975      1
  5975  5972  5976      1
  5976  5973  5974      1
  5977  5973  5977      1
  5978  5973  5978      1
  5979  5974  5979      1
  5980  5979  5980      1
  5981  5979  5982      1
  5982  5979  5983      1
  5983  5980  5981      1
  5984  5980  5984      1
  5985  5980  5985      1
  5986  5981  5986      1
  5987  5986  5987      1
  5988  5986  5989      1
  5989  5986  5990      1
  5990  5987  5988      1
  5991  5987  5991      1
  5992  5987  5992      1
  5993  5988  5993      1
  5994  5993  5994      1
  5995  5993  5996      1
  5996  5993  5997      1
  5997  5994  5995      1
  5998  5994  5998      1
  5999  5994  5999      1
  6000  5995  6000      1
  6001  6000  6001      1
  6002  6000  6003      1
  6003  6000  6004      1
  6004  6001  6002      1
  6005  6001  6005      1
  6006  6001  6006      1
  6007  6002  6007      1
  6008  6007  6008      1
  6009  6007  6010      1
  6010  6007  6011      1
  6011  6008  6009      1
  6012  6008  6012      1
  6013  6008  6013      1
  6014  6009  6014      1
  6015  6014  6015      1
  6016  6014  6017      1
  6017  6014  6018      1
  6018  6015  6016      1
  6019  6015  6019      1
  6020  6015  6020      1
  6021  6016  6021      1
  6022  6021  6022      1
  6023  6021  6024      1
  6024  6021  6025      1
  6025  6022  6023      1
  6026  6022  6026      1
  6027  6022  6027      1
  6028  6023  6028      1
  6029  6028  6029      1
  6030  6028  6031      1
  6031  6028  6032      1
  6032  6029  6030      1
  6033  6029  6033      1
  6034  6029  6034      1
  6035  6030  6035      1
  6036  6035  6036      1
  6037  6035  6038      1
  6038  6035  6039      1
  6039  6036  6037      1
  6040  6036  6040      1
  6041  6036  6041      1
  6042  6037  6042      1
  6043  6042  6043      1
  6044  6042  6045      1
  6045  6042  6046      1
  6046  6043  6044      1
  6047  6043  6047      1
  6048  6043  6048      1
  6049  6044  6049      1
  6050  6049  6050      1
  6051  6049  6052      1
  6052  6049  6053      1
  6053  6050  6051      1
  6054  6050  6054      1
  6055  6050  6055      1
  6056  6051  6056      1
  6057  6056  6057      1
  6058  6056  6059      1
  6059  6056  6060      1
  6060  6057  6058      1
  6061  6057  6061      1
  6062  6057  6062      1
  6063  6058  6063      1
  6064  6063  6064      1
  6065  6063  6066      1
  6066  6063  6067      1
  6067  6064  6065      1
  6068  6064  6068      1
  6069  6064  6069      1
  6070  6065  6070      1
  6071  6070  6071      1
  6072  6070  6073      1
  6073  6070  6074      1
  6074  6071  6072      1
  6075  6071  6075      1
  6076  6071  6076      1
  6077  6072  6077      1
  6078  6077  6078      1
  6079  6077  6080      1
  6080  6077  6081      1
  6081  6078  6079      1
  6082  6078  6082      1
  6083  6078  6083      1
  6084  6079  6084      1
  6085  6084  6085      1
  6086  6084  6087      1
  6087  6084  6088      1
  6088  6085  6086      1
  6089  6085  6089      1
  6090  6085  6090      1
  6091  6086  6091      1
  6092  6091  6092      1
  6093  6091  6094      1
  6094  6091  6095      1
  6095  6092  6093      1
  6096  6092  6096      1
  6097  6092  6097      1
  6098  6093  6098      1
  6099  6098  6099      1
  6100  6098  6101      1
  6101  6098  6102      1
  6102  6099  6100      1
  6103  6099  6103      1
  6104  6099  6104      1
  6105  6100  6105      1
  6106  6105  6106      1
  6107  6105  6108      1
  6108  6105  6109      1
  6109  6106  6107      1
  6110  6106  6110      1
  6111  6106  6111      1
  6112  6107  6112      1
  6113  6112  6113      1
  6114  6112  6115      1
  6115  6112  6116      1
  6116  6113  6114      1
  6117  6113  6117      1
  6118  6113  6118      1
  6119  6114  6119      1
  6120  6119  6120      1
  6121  6119  6122      1
  6122  6119  6123      1
  6123  6120  6121      1
  6124  6120  6124      1
  6125  6120  6125      1
  6126  6121  6126      1
  6127  6126  6127      1
  6128  6126  6129      1
  6129  6126  6130      1
  6130  6127  6128      1
  6131  6127  6131      1
  6132  6127  6132      1
  6133  6128  6133      1
  6134  6133  6134      1
  6135  6133  6136      1
  6136  6133  6137      1
  6137  6134  6135      1
  6138  6134  6138      1
  6139  6134  6139      1
  6140  6135  6140      1
  6141  6140  6141      1
  6142  6140  6143      1
  6143  6140  6144      1
  6144  6141  6142      1
  6145  6141  6145      1
  6146  6141  6146      1
  6147  6142  6147      1
  6148  6147  6148      1
  6149  6147  6150      1
  6150  6147  6151      1
  6151  6148  6149      1
  6152  6148  6152      1
  6153  6148  6153      1
  6154  6149  6154      1
  6155  6154  6155      1
  6156  6154  6157      1
  6157  6154  6158      1
  6158  6155  6156      1
  6159  6155  6159      1
  6160  6155  6160      1
  6161  6156  6161      1
  6162  6161  6162      1
  6163  6161  6164      1
  6164  6161  6165      1
  6165  6162  6163      1
  6166  6162  6166      1
  6167  6162  6167      1
  6168  6163  6168      1
  6169  6168  6169      1
  6170  6168  6171      1
  6171  6168  6172      1
  6172  6169  6170      1
  6173  6169  6173      1
  6174  6169  6174      1
  6175  6170  6175      1
  6176  6175  6176      1
  6177  6175  6178      1
  6178  6175  6179      1
  6179  6176  6177      1
  6180  6176  6180      1
  6181  6176  6181      1
  6182  6177  6182      1
  6183  6182  6183      1
  6184  6182  6185      1
  6185  6182  6186      1
  6186  6183  6184      1
  6187  6183  6187      1
  6188  6183  6188      1
  6189  6184  6189      1
  6190  6189  6190      1
  6191  6189  6192      1
  6192  6189  6193      1
  6193  6190  6191      1
  6194  6190  6194      1
  6195  6190  6195      1
  6196  6191  6196      1
  6197  6196  6197      1
  6198  6196  6199      1
  6199  6196  6200      1
  6200  6197  6198      1
  6201  6197  6201      1
  6202  6197  6202      1
  6203  6198  6203      1
  6204  6203  6204      1
  6205  6203  6206      1
  6206  6203  6207      1
  6207  6204  6205      1
  6208  6204  6208      1
  6209  6204  6209      1
  6210  6205  6210      1
  6211  6210  6211      1
  6212  6210  6213      1
  6213  6210  6214      1
  6214  6211  6212      1
  6215  6211  6215      1
  6216  6211  6216      1
  6217  6212  6217      1
  6218  6217  6218      1
  6219  6217  6220      1
  6220  6217  6221      1
  6221  6218  6219      1
  6222  6218  6222      1
  6223  6218  6223      1
  6224  6219  6224      1
  6225  6224  6225      1
  6226  6224  6227      1
  6227  6224  6228      1
  6228  6225  6226      1
  6229  6225  6229      1
  6230  6225  6230      1
  6231  6226  6231      1
  6232  6231  6232      1
  6233  6231  6234      1
  6234  6231  6235      1
  6235  6232  6233      1
  6236  6232  6236      1
  6237  6232  6237      1
  6238  6233  6238      1
  6239  6238  6239      1
  6240  6238  6241      1
  6241  6238  6242      1
  6242  6239  6240      1
  6243  6239  6243      1
  6244  6239  6244      1
  6245  6240  6245      1
  6246  6245  6246      1
  6247  6245  6248      1
  6248  6245  6249      1
  6249  6246  6247      1
  6250  6246  6250      1
  6251  6246  6251      1
  6252  6247  6252      1
  6253  6252  6253      1
  6254  6252  6255      1
  6255  6252  6256      1
  6256  6253  6254      1
  6257  6253  6257      1
  6258  6253  6258      1
  6259  6254  6259      1
  6260  6259  6260      1
  6261  6259  6262      1
  6262  6259  6263      1
  6263  6260  6261      1
  6264  6260  6264      1
  6265  6260  6265      1
  6266  6261  6266      1
  6267  6266  6267      1
  6268  6266  6269      1
  6269  6266  6270      1
  6270  6267  6268      1
  6271  6267  6271      1
  6272  6267  6272      1
  6273  6268  6273      1
  6274  6273  6274      1
  6275  6273  6276      1
  6276  6273  6277      1
  6277  6274  6275      1
  6278  6274  6278      1
  6279  6274  6279      1
  6280  6275  6280      1
  6281  6280  6281      1
  6282  6280  6283      1
  6283  6280  6284      1
  6284  6281  6282      1
  6285  6281  6285      1
  6286  6281  6286      1
  6287  6282  6287      1
  6288  6287  6288      1
  6289  6287  6290      1
  6290  6287  6291      1
  6291  6288  6289      1
  6292  6288  6292      1
  6293  6288  6293      1
  6294  6289  6294      1
  6295  6294  6295      1
  6296  6294  6297      1
  6297  6294  6298      1
  6298  6295  6296      1
  6299  6295  6299      1
  6300  6295  6300      1
  6301  6296  6301      1
  6302  6301  6302      1
  6303  6301  6304      1
  6304  6301  6305      1
  6305  6302  6303      1
  6306  6302  6306      1
  6307  6302  6307      1
  6308  6303  6308      1
  6309  6308  6309      1
  6310  6308  6311      1
  6311  6308  6312      1
  6312  6309  6310      1
  6313  6309  6313      1
  6314  6309  6314      1
  6315  6310  6315      1
  6316  6315  6316      1
  6317  6315  6318      1
  6318  6315  6319      1
  6319  6316  6317      1
  6320  6316  6320      1
  6321  6316  6321      1
  6322  6317  6322      1
  6323  6322  6323      1
  6324  6322  6325      1
  6325  6322  6326      1
  6326  6323  6324      1
  6327  6323  6327      1
  6328  6323  6328      1
  6329  6324  6329      1
  6330  6329  6330      1
  6331  6329  6332      1
  6332  6329  6333      1
  6333  6330  6331      1
  6334  6330  6334      1
  6335  6330  6335      1
  6336  6331  6336      1
  6337  6336  6337      1
  6338  6336  6339      1
  6339  6336  6340      1
  6340  6337  6338      1
  6341  6337  6341      1
  6342  6337  6342      1
  6343  6338  6343      1
  6344  6343  6344      1
  6345  6343  6346      1
  6346  6343  6347      1
  6347  6344  6345      1
  6348  6344  6348      1
  6349  6344  6349      1
  6350  6345  6350      1
  6351  6350  6351      1
  6352  6350  6353      1
  6353  6350  6354      1
  6354  6351  6352      1
  6355  6351  6355      1
  6356  6351  6356      1
  6357  6352  6357      1
  6358  6357  6358      1
  6359  6357  6360      1
  6360  6357  6361      1
  6361  6358  6359      1
  6362  6358  6362      1
  6363  6358  6363      1
  6364  6359  6364      1
  6365  6364  6365      1
  6366  6364  6367      1
  6367  6364  6368      1
  6368  6365  6366      1
  6369  6365  6369      1
  6370  6365  6370      1
  6371  6366  6371      1
  6372  6371  6372      1
  6373  6371  6374      1
  6374  6371  6375      1
  6375  6372  6373      1
  6376  6372  6376      1
  6377  6372  6377      1
  6378  6373  6378      1
  6379  6378  6379      1
  6380  6378  6381      1
  6381  6378  6382      1
  6382  6379  6380      1
  6383  6379  6383      1
  6384  6379  6384      1
  6385  6380  6385      1
  6386  6385  6386      1
  6387  6385  6388      1
  6388  6385  6389      1
  6389  6386  6387      1
  6390  6386  6390      1
  6391  6386  6391      1
  6392  6387  6392      1
  6393  6392  6393      1
  6394  6392  6395      1
  6395  6392  6396      1
  6396  6393  6394      1
  6397  6393  6397      1
  6398  6393  6398      1
  6399  6394  6399      1
  6400  6399  6400      1
  6401  6399  6402      1
  6402  6399  6403      1
  6403  6400  6401      1
  6404  6400  6404      1
  6405  6400  6405      1
  6406  6401  6406      1
  6407  6406  6407      1
  6408  6406  6409      1
  6409  6406  6410      1
  6410  6407  6408      1
  6411  6407  6411      1
  6412  6407  6412      1
  6413  6408  6413      1
  6414  6413  6414      1
  6415  6413  6416      1
  6416  6413  6417      1
  6417  6414  6415      1
  6418  6414  6418      1
  6419  6414  6419      1
  6420  6415  6420      1
  6421  6420  6421      1
  6422  6420  6423      1
  6423  6420  6424      1
  6424  6421  6422      1
  6425  6421  6425      1
  6426  6421  6426      1
  6427  6422  6427      1
  6428  6427  6428      1
  6429  6427  6430      1
  6430  6427  6431      1
  6431  6428  6429      1
  6432  6428  6432      1
  6433  6428  6433      1
  6434  6429  6434      1
  6435  6434  6435      1
  6436  6434  6437      1
  6437  6434  6438      1
  6438  6435  6436      1
  6439  6435  6439      1
  6440  6435  6440      1
  6441  6436  6441      1
  6442  6441  6442      1
  6443  6441  6444      1
  6444  6441  6445      1
  6445  6442  6443      1
  6446  6442  6446      1
  6447  6442  6447      1
  6448  6443  6448      1
  6449  6448  6449      1
  6450  6448  6451      1
  6451  6448  6452      1
  6452  6449  6450      1
  6453  6449  6453      1
  6454  6449  6454      1
  6455  6450  6455      1
  6456  6455  6456      1
  6457  6455  6458      1
  6458  6455  6459      1
  6459  6456  6457      1
  6460  6456  6460      1
  6461  6456  6461      1
  6462  6457  6462      1
  6463  6462  6463      1
  6464  6462  6465      1
  6465  6462  6466      1
  6466  6463  6464      1
  6467  6463  6467      1
  6468  6463  6468      1
  6469  6464  6469      1
  6470  6469  6470      1
  6471  6469  6472      1
  6472  6469  6473      1
  6473  6470  6471      1
  6474  6470  6474      1
  6475  6470  6475      1
  6476  6471  6476      1
  6477  6476  6477      1
  6478  6476  6479      1
  6479  6476  6480      1
  6480  6477  6478      1
  6481  6477  6481      1
  6482  6477  6482      1
  6483  6478  6483      1
  6484  6483  6484      1
  6485  6483  6486      1
  6486  6483  6487      1
  6487  6484  6485      1
  6488  6484  6488      1
  6489  6484  6489      1
  6490  6485  6490      1
  6491  6490  6491      1
  6492  6490  6493      1
  6493  6490  6494      1
  6494  6491  6492      1
  6495  6491  6495      1
  6496  6491  6496      1
  6497  6492  6497      1
  6498  6497  6498      1
  6499  6497  6500      1
  6500  6497  6501      1
  6501  6498  6499      1
  6502  6498  6502      1
  6503  6498  6503      1
  6504  6499  6504      1
  6505  6504  6505      1
  6506  6504  6507      1
  6507  6504  6508      1
  6508  6505  6506      1
  6509  6505  6509      1
  6510  6505  6510      1
  6511  6506  6511      1
  6512  6511  6512      1
  6513  6511  6514      1
  6514  6511  6515      1
  6515  6512  6513      1
  6516  6512  6516      1
  6517  6512  6517      1
  6518  6513  6518      1
  6519  6518  6519      1
  6520  6518  6521      1
  6521  6518  6522      1
  6522  6519  6520      1
  6523  6519  6523      1
  6524  6519  6524      1
  6525  6520  6525      1
  6526  6525  6526      1
  6527  6525  6528      1
  6528  6525  6529      1
  6529  6526  6527      1
  6530  6526  6530      1
  6531  6526  6531      1
  6532  6527  6532      1
  6533  6532  6533      1
  6534  6532  6535      1
  6535  6532  6536      1
  6536  6533  6534      1
  6537  6533  6537      1
  6538  6533  6538      1
  6539  6534  6539      1
  6540  6539  6540      1
  6541  6539  6542      1
  6542  6539  6543      1
  6543  6540  6541      1
  6544  6540  6544      1
  6545  6540  6545      1
  6546  6541  6546      1
  6547  6546  6547      1
  6548  6546  6549      1
  6549  6546  6550      1
  6550  6547  6548      1
  6551  6547  6551      1
  6552  6547  6552      1
  6553  6548  6553      1
  6554  6553  6554      1
  6555  6553  6556      1
  6556  6553  6557      1
  6557  6554  6555      1
  6558  6554  6558      1
  6559  6554  6559      1
  6560  6555  6560      1
  6561  6560  6561      1
  6562  6560  6563      1
  6563  6560  6564      1
  6564  6561  6562      1
  6565  6561  6565      1
  6566  6561  6566      1
  6567  6562  6567      1
  6568  6567  6568      1
  6569  6567  6570      1
  6570  6567  6571      1
  6571  6568  6569      1
  6572  6568  6572      1
  6573  6568  6573      1
  6574  6569  6574      1
  6575  6574  6575      1
  6576  6574  6577      1
  6577  6574  6578      1
  6578  6575  6576      1
  6579  6575  6579      1
  6580  6575  6580      1
  6581  6576  6581      1
  6582  6581  6582      1
  6583  6581  6584      1
  6584  6581  6585      1
  6585  6582  6583      1
  6586  6582  6586      1
  6587  6582  6587      1
  6588  6583  6588      1
  6589  6588  6589      1
  6590  6588  6591      1
  6591  6588  6592      1
  6592  6589  6590      1
  6593  6589  6593      1
  6594  6589  6594      1
  6595  6590  6595      1
  6596  6595  6596      1
  6597  6595  6598      1
  6598  6595  6599      1
  6599  6596  6597      1
  6600  6596  6600      1
  6601  6596  6601      1
  6602  6597  6602      1
  6603  6602  6603      1
  6604  6602  6605      1
  6605  6602  6606      1
  6606  6603  6604      1
  6607  6603  6607      1
  6608  6603  6608      1
  6609  6604  6609      1
  6610  6609  6610      1
  6611  6609  6612      1
  6612  6609  6613      1
  6613  6610  6611      1
  6614  6610  6614      1
  6615  6610  6615      1
  6616  6611  6616      1
  6617  6616  6617      1
  6618  6616  6619      1
  6619  6616  6620      1
  6620  6617  6618      1
  6621  6617  6621      1
  6622  6617  6622      1
  6623  6618  6623      1
  6624  6623  6624      1
  6625  6623  6626      1
  6626  6623  6627      1
  6627  6624  6625      1
  6628  6624  6628      1
  6629  6624  6629      1
  6630  6625  6630      1
  6631  6630  6631      1
  6632  6630  6633      1
  6633  6630  6634      1
  6634  6631  6632      1
  6635  6631  6635      1
  6636  6631  6636      1
  6637  6632  6637      1
  6638  6637  6638      1
  6639  6637  6640      1
  6640  6637  6641      1
  6641  6638  6639      1
  6642  6638  6642      1
  6643  6638  6643      1
  6644  6639  6644      1
  6645  6644  6645      1
  6646  6644  6647      1
  6647  6644  6648      1
  6648  6645  6646      1
  6649  6645  6649      1
  6650  6645  6650      1
  6651  6646  6651      1
  6652  6651  6652      1
  6653  6651  6654      1
  6654  6651  6655      1
  6655  6652  6653      1
  6656  6652  6656      1
  6657  6652  6657      1
  6658  6653  6658      1
  6659  6658  6659      1
  6660  6658  6661      1
  6661  6658  6662      1
  6662  6659  6660      1
  6663  6659  6663      1
  6664  6659  6664      1
  6665  6660  6665      1
  6666  6665  6666      1
  6667  6665  6668      1
  6668  6665  6669      1
  6669  6666  6667      1
  6670  6666  6670      1
  6671  6666  6671      1
  6672  6667  6672      1
  6673  6672  6673      1
  6674  6672  6675      1
  6675  6672  6676      1
  6676  6673  6674      1
  6677  6673  6677      1
  6678  6673  6678      1
  6679  6674  6679      1
  6680  6679  6680      1
  6681  6679  6682      1
  6682  6679  6683      1
  6683  6680  6681      1
  6684  6680  6684      1
  6685  6680  6685      1
  6686  6681  6686      1
  6687  6686  6687      1
  6688  6686  6689      1
  6689  6686  6690      1
  6690  6687  6688      1
  6691  6687  6691      1
  6692  6687  6692      1
  6693  6688  6693      1
  6694  6693  6694      1
  6695  6693  6696      1
  6696  6693  6697      1
  6697  6694  6695      1
  6698  6694  6698      1
  6699  6694  6699      1
  6700  6695  6700      1
  6701  6700  6701      1
  6702  6700  6703      1
  6703  6700  6704      1
  6704  6701  6702      1
  6705  6701  6705      1
  6706  6701  6706      1
  6707  6702  6707      1
  6708  6707  6708      1
  6709  6707  6710      1
  6710  6707  6711      1
  6711  6708  6709      1
  6712  6708  6712      1
  6713  6708  6713      1
  6714  6709  6714      1
  6715  6714  6715      1
  6716  6714  6717      1
  6717  6714  6718      1
  6718  6715  6716      1
  6719  6715  6719      1
  6720  6715  6720      1
  6721  6716  6721      1
  6722  6721  6722      1
  6723  6721  6724      1
  6724  6721  6725      1
  6725  6722  6723      1
  6726  6722  6726      1
  6727  6722  6727      1
  6728  6723  6728      1
  6729  6728  6729      1
  6730  6728  6731      1
  6731  6728  6732      1
  6732  6729  6730      1
  6733  6729  6733      1
  6734  6729  6734      1
  6735  6730  6735      1
  6736  6735  6736      1
  6737  6735  6738      1
  6738  6735  6739      1
  6739  6736  6737      1
  6740  6736  6740      1
  6741  6736  6741      1
  6742  6737  6742      1
  6743  6742  6743      1
  6744  6742  6745      1
  6745  6742  6746      1
  6746  6743  6744      1
  6747  6743  6747      1
  6748  6743  6748      1
  6749  6744  6749      1
  6750  6749  6750      1
  6751  6749  6752      1
  6752  6749  6753      1
  6753  6750  6751      1
  6754  6750  6754      1
  6755  6750  6755      1
  6756  6751  6756      1
  6757  6756  6757      1
  6758  6756  6759      1
  6759  6756  6760      1
  6760  6757  6758      1
  6761  6757  6761      1
  6762  6757  6762      1
  6763  6758  6763      1
  6764  6763  6764      1
  6765  6763  6766      1
  6766  6763  6767      1
  6767  6764  6765      1
  6768  6764  6768      1
  6769  6764  6769      1
  6770  6765  6770      1
  6771  6770  6771      1
  6772  6770  6773      1
  6773  6770  6774      1
  6774  6771  6772      1
  6775  6771  6775      1
  6776  6771  6776      1
  6777  6772  6777      1
  6778  6777  6778      1
  6779  6777  6780      1
  6780  6777  6781      1
  6781  6778  6779      1
  6782  6778  6782      1
  6783  6778  6783      1
  6784  6779  6784      1
  6785  6784  6785      1
  6786  6784  6787      1
  6787  6784  6788      1
  6788  6785  6786      1
  6789  6785  6789      1
  6790  6785  6790      1
  6791  6786  6791      1
  6792  6791  6792      1
  6793  6791  6794      1
  6794  6791  6795      1
  6795  6792  6793      1
  6796  6792  6796      1
  6797  6792  6797      1
  6798  6793  6798      1
  6799  6798  6799      1
  6800  6798  6801      1
  6801  6798  6802      1
  6802  6799  6800      1
  6803  6799  6803      1
  6804  6799  6804      1
  6805  6800  6805      1
  6806  6805  6806      1
  6807  6805  6808      1
  6808  6805  6809      1
  6809  6806  6807      1
  6810  6806  6810      1
  6811  6806  6811      1
  6812  6807  6812      1
  6813  6812  6813      1
  6814  6812  6815      1
  6815  6812  6816      1
  6816  6813  6814      1
  6817  6813  6817      1
  6818  6813  6818      1
  6819  6814  6819      1
  6820  6819  6820      1
  6821  6819  6822      1
  6822  6819  6823      1
  6823  6820  6821      1
  6824  6820  6824      1
  6825  6820  6825      1
  6826  6821  6826      1
  6827  6826  6827      1
  6828  6826  6829      1
  6829  6826  6830      1
  6830  6827  6828      1
  6831  6827  6831      1
  6832  6827  6832      1
  6833  6828  6833      1
  6834  6833  6834      1
  6835  6833  6836      1
  6836  6833  6837      1
  6837  6834  6835      1
  6838  6834  6838      1
  6839  6834  6839      1
  6840  6835  6840      1
  6841  6840  6841      1
  6842  6840  6843      1
  6843  6840  6844      1
  6844  6841  6842      1
  6845  6841  6845      1
  6846  6841  6846      1
  6847  6842  6847      1
  6848  6847  6848      1
  6849  6847  6850      1
  6850  6847  6851      1
  6851  6848  6849      1
  6852  6848  6852      1
  6853  6848  6853      1
  6854  6849  6854      1
  6855  6854  6855      1
  6856  6854  6857      1
  6857  6854  6858      1
  6858  6855  6856      1
  6859  6855  6859      1
  6860  6855  6860      1
  6861  6856  6861      1
  6862  6861  6862      1
  6863  6861  6864      1
  6864  6861  6865      1
  6865  6862  6863      1
  6866  6862  6866      1
  6867  6862  6867      1
  6868  6863  6868      1
  6869  6868  6869      1
  6870  6868  6871      1
  6871  6868  6872      1
  6872  6869  6870      1
  6873  6869  6873      1
  6874  6869  6874      1
  6875  6870  6875      1
  6876  6875  6876      1
  6877  6875  6878      1
  6878  6875  6879      1
  6879  6876  6877      1
  6880  6876  6880      1
  6881  6876  6881      1
  6882  6877  6882      1
  6883  6882  6883      1
  6884  6882  6885      1
  6885  6882  6886      1
  6886  6883  6884      1
  6887  6883  6887      1
  6888  6883  6888      1
  6889  6884  6889      1
  6890  6889  6890      1
  6891  6889  6892      1
  6892  6889  6893      1
  6893  6890  6891      1
  6894  6890  6894      1
  6895  6890  6895      1
  6896  6891  6896      1
  6897  6896  6897      1
  6898  6896  6899      1
  6899  6896  6900      1
  6900  6897  6898      1
  6901  6897  6901      1
  6902  6897  6902      1
  6903  6898  6903      1
  6904  6903  6904      1
  6905  6903  6906      1
  6906  6903  6907      1
  6907  6904  6905      1
  6908  6904  6908      1
  6909  6904  6909      1
  6910  6905  6910      1
  6911  6910  6911      1
  6912  6910  6913      1
  6913  6910  6914      1
  6914  6911  6912      1
  6915  6911  6915      1
  6916  6911  6916      1
  6917  6912  6917      1
  6918  6917  6918      1
  6919  6917  6920      1
  6920  6917  6921      1
  6921  6918  6919      1
  6922  6918  6922      1
  6923  6918  6923      1
  6924  6919  6924      1
  6925  6924  6925      1
  6926  6924  6927      1
  6927  6924  6928      1
  6928  6925  6926      1
  6929  6925  6929      1
  6930  6925  6930      1
  6931  6926  6931      1
  6932  6931  6932      1
  6933  6931  6934      1
  6934  6931  6935      1
  6935  6932  6933      1
  6936  6932  6936      1
  6937  6932  6937      1
  6938  6933  6938      1
  6939  6938  6939      1
  6940  6938  6941      1
  6941  6938  6942      1
  6942  6939  6940      1
  6943  6939  6943      1
  6944  6939  6944      1
  6945  6940  6945      1
  6946  6945  6946      1
  6947  6945  6948      1
  6948  6945  6949      1
  6949  6946  6947      1
  6950  6946  6950      1
  6951  6946  6951      1
  6952  6947  6952      1
  6953  6952  6953      1
  6954  6952  6955      1
  6955  6952  6956      1
  6956  6953  6954      1
  6957  6953  6957      1
  6958  6953  6958      1
  6959  6954  6959      1
  6960  6959  6960      1
  6961  6959  6962      1
  6962  6959  6963      1
  6963  6960  6961      1
  6964  6960  6964      1
  6965  6960  6965      1
  6966  6961  6966      1
  6967  6966  6967      1
  6968  6966  6969      1
  6969  6966  6970      1
  6970  6967  6968      1
  6971  6967  6971      1
  6972  6967  6972      1
  6973  6968  6973      1
  6974  6973  6974      1
  6975  6973  6976      1
  6976  6973  6977      1
  6977  6974  6975      1
  6978  6974  6978      1
  6979  6974  6979      1
  6980  6975  6980      1
  6981  6980  6981      1
  6982  6980  6983      1
  6983  6980  6984      1
  6984  6981  6982      1
  6985  6981  6985      1
  6986  6981  6986      1
  6987  6982  6987      1
  6988  6987  6988      1
  6989  6987  6990      1
  6990  6987  6991      1
  6991  6988  6989      1
  6992  6988  6992      1
  6993  6988  6993      1
  6994  6989  6994      1
  6995  6994  6995      1
  6996  6994  6997      1
  6997  6994  6998      1
  6998  6995  6996      1
  6999  6995  6999      1
  7000  6995  7000      1
  7001  6996  7001      1
  7002  7001  7002      1
  7003  7001  7004      1
  7004  7001  7005      1
  7005  7002  7003      1
  7006  7002  7006      1
  7007  7002  7007      1
  7008  7003  7008      1
  7009  7008  7009      1
  7010  7008  7011      1
  7011  7008  7012      1
  7012  7009  7010      1
  7013  7009  7013      1
  7014  7009  7014      1
  7015  7010  7015      1
  7016  7015  7016      1
  7017  7015  7018      1
  7018  7015  7019      1
  7019  7016  7017      1
  7020  7016  7020      1
  7021  7016  7021      1
  7022  7017  7022      1
  7023  7022  7023      1
  7024  7022  7025      1
  7025  7022  7026      1
  7026  7023  7024      1
  7027  7023  7027      1
  7028  7023  7028      1
  7029  7024  7029      1
  7030  7029  7030      1
  7031  7029  7032      1
  7032  7029  7033      1
  7033  7030  7031      1
  7034  7030  7034      1
  7035  7030  7035      1
  7036  7031  7036      1
  7037  7036  7037      1
  7038  7036  7039      1
  7039  7036  7040      1
  7040  7037  7038      1
  7041  7037  7041      1
  7042  7037  7042      1
  7043  7038  7043      1
  7044  7043  7044      1
  7045  7043  7046      1
  7046  7043  7047      1
  7047  7044  7045      1
  7048  7044  7048      1
  7049  7044  7049      1
  7050  7045  7050      1
  7051  7050  7051      1
  7052  7050  7053      1
  7053  7050  7054      1
  7054  7051  7052      1
  7055  7051  7055      1
  7056  7051  7056      1
  7057  7052  7057      1
  7058  7057  7058      1
  7059  7057  7060      1
  7060  7057  7061      1
  7061  7058  7059      1
  7062  7058  7062      1
  7063  7058  7063      1
  7064  7059  7064      1
  7065  7064  7065      1
  7066  7064  7067      1
  7067  7064  7068      1
  7068  7065  7066      1
  7069  7065  7069      1
  7070  7065  7070      1
  7071  7066  7071      1
  7072  7071  7072      1
  7073  7071  7074      1
  7074  7071  7075      1
  7075  7072  7073      1
  7076  7072  7076      1
  7077  7072  7077      1
  7078  7073  7078      1
  7079  7078  7079      1
  7080  7078  7081      1
  7081  7078  7082      1
  7082  7079  7080      1
  7083  7079  7083      1
  7084  7079  7084      1
  7085  7080  7085      1
  7086  7085  7086      1
  7087  7085  7088      1
  7088  7085  7089      1
  7089  7086  7087      1
  7090  7086  7090      1
  7091  7086  7091      1
  7092  7087  7092      1
  7093  7092  7093      1
  7094  7092  7095      1
  7095  7092  7096      1
  7096  7093  7094      1
  7097  7093  7097      1
  7098  7093  7098      1
  7099  7094  7099      1
  7100  7099  7100      1
  7101  7099  7102      1
  7102  7099  7103      1
  7103  7100  7101      1
  7104  7100  7104      1
  7105  7100  7105      1
  7106  7101  7106      1
  7107  7106  7107      1
  7108  7106  7109      1
  7109  7106  7110      1
  7110  7107  7108      1
  7111  7107  7111      1
  7112  7107  7112      1
  7113  7108  7113      1
  7114  7113  7114      1
  7115  7113  7116      1
  7116  7113  7117      1
  7117  7114  7115      1
  7118  7114  7118      1
  7119  7114  7119      1
  7120  7115  7120      1
  7121  7120  7121      1
  7122  7120  7123      1
  7123  7120  7124      1
  7124  7121  7122      1
  7125  7121  7125      1
  7126  7121  7126      1
  7127  7122  7127      1
  7128  7127  7128      1
  7129  7127  7130      1
  7130  7127  7131      1
  7131  7128  7129      1
  7132  7128  7132      1
  7133  7128  7133      1
  7134  7129  7134      1
  7135  7134  7135      1
  7136  7134  7137      1
  7137  7134  7138      1
  7138  7135  7136      1
  7139  7135  7139      1
  7140  7135  7140      1
  7141  7136  7141      1
  7142  7141  7142      1
  7143  7141  7144      1
  7144  7141  7145      1
  7145  7142  7143      1
  7146  7142  7146      1
  7147  7142  7147      1
  7148  7143  7148      1
  7149  7148  7149      1
  7150  7148  7151      1
  7151  7148  7152      1
  7152  7149  7150      1
  7153  7149  7153      1
  7154  7149  7154      1
  7155  7150  7155      1
  7156  7155  7156      1
  7157  7155  7158      1
  7158  7155  7159      1
  7159  7156  7157      1
  7160  7156  7160      1
  7161  7156  7161      1
  7162  7157  7162      1
  7163  7162  7163      1
  7164  7162  7165      1
  7165  7162  7166      1
  7166  7163  7164      1
  7167  7163  7167      1
  7168  7163  7168      1
  7169  7164  7169      1
  7170  7169  7170      1
  7171  7169  7172      1
  7172  7169  7173      1
  7173  7170  7171      1
  7174  7170  7174      1
  7175  7170  7175      1
  7176  7171  7176      1
  7177  7176  7177      1
  7178  7176  7179      1
  7179  7176  7180      1
  7180  7177  7178      1
  7181  7177  7181      1
  7182  7177  7182      1
  7183  7178  7183      1
  7184  7183  7184      1
  7185  7183  7186      1
  7186  7183  7187      1
  7187  7184  7185      1
  7188  7184  7188      1
  7189  7184  7189      1
  7190  7185  7190      1
  7191  7190  7191      1
  7192  7190  7193      1
  7193  7190  7194      1
  7194  7191  7192      1
  7195  7191  7195      1
  7196  7191  7196      1
  7197  7192  7197      1
  7198  7197  7198      1
  7199  7197  7200      1
  7200  7197  7201      1
  7201  7198  7199      1
  7202  7198  7202      1
  7203  7198  7203      1
  7204  7199  7204      1
  7205  7204  7205      1
  7206  7204  7207      1
  7207  7204  7208      1
  7208  7205  7206      1
  7209  7205  7209      1
  7210  7205  7210      1
  7211  7206  7211      1
  7212  7211  7212      1
  7213  7211  7214      1
  7214  7211  7215      1
  7215  7212  7213      1
  7216  7212  7216      1
  7217  7212  7217      1
  7218  7213  7218      1
  7219  7218  7219      1
  7220  7218  7221      1
  7221  7218  7222      1
  7222  7219  7220      1
  7223  7219  7223      1
  7224  7219  7224      1
  7225  7220  7225      1
  7226  7225  7226      1
  7227  7225  7228      1
  7228  7225  7229      1
  7229  7226  7227      1
  7230  7226  7230      1
  7231  7226  7231      1
  7232  7227  7232      1
  7233  7232  7233      1
  7234  7232  7235      1
  7235  7232  7236      1
  7236  7233  7234      1
  7237  7233  7237      1
  7238  7233  7238      1
  7239  7234  7239      1
  7240  7239  7240      1
  7241  7239  7242      1
  7242  7239  7243      1
  7243  7240  7241      1
  7244  7240  7244      1
  7245  7240  7245      1
  7246  7241  7246      1
  7247  7246  7247      1
  7248  7246  7249      1
  7249  7246  7250      1
  7250  7247  7248      1
  7251  7247  7251      1
  7252  7247  7252      1
  7253  7248  7253      1
  7254  7253  7254      1
  7255  7253  7256      1
  7256  7253  7257      1
  7257  7254  7255      1
  7258  7254  7258      1
  7259  7254  7259      1
  7260  7255  7260      1
  7261  7260  7261      1
  7262  7260  7263      1
  7263  7260  7264      1
  7264  7261  7262      1
  7265  7261  7265      1
  7266  7261  7266      1
  7267  7262  7267      1
  7268  7267  7268      1
  7269  7267  7270      1
  7270  7267  7271      1
  7271  7268  7269      1
  7272  7268  7272      1
  7273  7268  7273      1
  7274  7269  7274      1
  7275  7274  7275      1
  7276  7274  7277      1
  7277  7274  7278      1
  7278  7275  7276      1
  7279  7275  7279      1
  7280  7275  7280      1
  7281  7276  7281      1
  7282  7281  7282      1
  7283  7281  7284      1
  7284  7281  7285      1
  7285  7282  7283      1
  7286  7282  7286      1
  7287  7282  7287      1
  7288  7283  7288      1
  7289  7288  7289      1
  7290  7288  7291      1
  7291  7288  7292      1
  7292  7289  7290      1
  7293  7289  7293      1
  7294  7289  7294      1
  7295  7290  7295      1
  7296  7295  7296      1
  7297  7295  7298      1
  7298  7295  7299      1
  7299  7296  7297      1
  7300  7296  7300      1
  7301  7296  7301      1
  7302  7297  7302      1
  7303  7302  7303      1
  7304  7302  7305      1
  7305  7302  7306      1
  7306  7303  7304      1
  7307  7303  7307      1
  7308  7303  7308      1
  7309  7304  7309      1
  7310  7309  7310      1
  7311  7309  7312      1
  7312  7309  7313      1
  7313  7310  7311      1
  7314  7310  7314      1
  7315  7310  7315      1
  7316  7311  7316      1
  7317  7316  7317      1
  7318  7316  7319      1
  7319  7316  7320      1
  7320  7317  7318      1
  7321  7317  7321      1
  7322  7317  7322      1
  7323  7318  7323      1
  7324  7323  7324      1
  7325  7323  7326      1
  7326  7323  7327      1
  7327  7324  7325      1
  7328  7324  7328      1
  7329  7324  7329      1
  7330  7325  7330      1
  7331  7330  7331      1
  7332  7330  7333      1
  7333  7330  7334      1
  7334  7331  7332      1
  7335  7331  7335      1
  7336  7331  7336      1
  7337  7332  7337      1
  7338  7337  7338      1
  7339  7337  7340      1
  7340  7337  7341      1
  7341  7338  7339      1
  7342  7338  7342      1
  7343  7338  7343      1
  7344  7339  7344      1
  7345  7344  7345      1
  7346  7344  7347      1
  7347  7344  7348      1
  7348  7345  7346      1
  7349  7345  7349      1
  7350  7345  7350      1
  7351  7346  7351      1
  7352  7351  7352      1
  7353  7351  7354      1
  7354  7351  7355      1
  7355  7352  7353      1
  7356  7352  7356      1
  7357  7352  7357      1
  7358  7353  7358      1
  7359  7358  7359      1
  7360  7358  7361      1
  7361  7358  7362      1
  7362  7359  7360      1
  7363  7359  7363      1
  7364  7359  7364      1
  7365  7360  7365      1
  7366  7365  7366      1
  7367  7365  7368      1
  7368  7365  7369      1
  7369  7366  7367      1
  7370  7366  7370      1
  7371  7366  7371      1
  7372  7367  7372      1
  7373  7372  7373      1
  7374  7372  7375      1
  7375  7372  7376      1
  7376  7373  7374      1
  7377  7373  7377      1
  7378  7373  7378      1
  7379  7374  7379      1
  7380  7379  7380      1
  7381  7379  7382      1
  7382  7379  7383      1
  7383  7380  7381      1
  7384  7380  7384      1
  7385  7380  7385      1
  7386  7381  7386      1
  7387  7386  7387      1
  7388  7386  7389      1
  7389  7386  7390      1
  7390  7387  7388      1
  7391  7387  7391      1
  7392  7387  7392      1
  7393  7388  7393      1
  7394  7393  7394      1
  7395  7393  7396      1
  7396  7393  7397      1
  7397  7394  7395      1
  7398  7394  7398      1
  7399  7394  7399      1
  7400  7395  7400      1
  7401  7400  7401      1
  7402  7400  7403      1
  7403  7400  7404      1
  7404  7401  7402      1
  7405  7401  7405      1
  7406  7401  7406      1
  7407  7402  7407      1
  7408  7407  7408      1
  7409  7407  7410      1
  7410  7407  7411      1
  7411  7408  7409      1
  7412  7408  7412      1
  7413  7408  7413      1
  7414  7409  7414      1
  7415  7414  7415      1
  7416  7414  7417      1
  7417  7414  7418      1
  7418  7415  7416      1
  7419  7415  7419      1
  7420  7415  7420      1
  7421  7416  7421      1
  7422  7421  7422      1
  7423  7421  7424      1
  7424  7421  7425      1
  7425  7422  7423      1
  7426  7422  7426      1
  7427  7422  7427      1
  7428  7423  7428      1
  7429  7428  7429      1
  7430  7428  7431      1
  7431  7428  7432      1
  7432  7429  7430      1
  7433  7429  7433      1
  7434  7429  7434      1
  7435  7430  7435      1
  7436  7435  7436      1
  7437  7435  7438      1
  7438  7435  7439      1
  7439  7436  7437      1
  7440  7436  7440      1
  7441  7436  7441      1
  7442  7437  7442      1
  7443  7442  7443      1
  7444  7442  7445      1
  7445  7442  7446      1
  7446  7443  7444      1
  7447  7443  7447      1
  7448  7443  7448      1
  7449  7444  7449      1
  7450  7449  7450      1
  7451  7449  7452      1
  7452  7449  7453      1
  7453  7450  7451      1
  7454  7450  7454      1
  7455  7450  7455      1
  7456  7451  7456      1
  7457  7456  7457      1
  7458  7456  7459      1
  7459  7456  7460      1
  7460  7457  7458      1
  7461  7457  7461      1
  7462  7457  7462      1
  7463  7458  7463      1
  7464  7463  7464      1
  7465  7463  7466      1
  7466  7463  7467      1
  7467  7464  7465      1
  7468  7464  7468      1
  7469  7464  7469      1
  7470  7465  7470      1
  7471  7470  7471      1
  7472  7470  7473      1
  7473  7470  7474      1
  7474  7471  7472      1
  7475  7471  7475      1
  7476  7471  7476      1
  7477  7472  7477      1
  7478  7477  7478      1
  7479  7477  7480      1
  7480  7477  7481      1
  7481  7478  7479      1
  7482  7478  7482      1
  7483  7478  7483      1
  7484  7479  7484      1
  7485  7484  7485      1
  7486  7484  7487      1
  7487  7484  7488      1
  7488  7485  7486      1
  7489  7485  7489      1
  7490  7485  7490      1
  7491  7486  7491      1
  7492  7491  7492      1
  7493  7491  7494      1
  7494  7491  7495      1
  7495  7492  7493      1
  7496  7492  7496      1
  7497  7492  7497      1
  7498  7493  7498      1
  7499  7498  7499      1
  7500  7498  7501      1
  7501  7498  7502      1
  7502  7499  7500      1
  7503  7499  7503      1
  7504  7499  7504      1
  7505  7500  7505      1
  7506  7505  7506      1
  7507  7505  7508      1
  7508  7505  7509      1
  7509  7506  7507      1
  7510  7506  7510      1
  7511  7506  7511      1
  7512  7507  7512      1
  7513  7512  7513      1
  7514  7512  7515      1
  7515  7512  7516      1
  7516  7513  7514      1
  7517  7513  7517      1
  7518  7513  7518      1
  7519  7514  7519      1
  7520  7519  7520      1
  7521  7519  7522      1
  7522  7519  7523      1
  7523  7520  7521      1
  7524  7520  7524      1
  7525  7520  7525      1
  7526  7521  7526      1
  7527  7526  7527      1
  7528  7526  7529      1
  7529  7526  7530      1
  7530  7527  7528      1
  7531  7527  7531      1
  7532  7527  7532      1
  7533  7528  7533      1
  7534  7533  7534      1
  7535  7533  7536      1
  7536  7533  7537      1
  7537  7534  7535      1
  7538  7534  7538      1
  7539  7534  7539      1
  7540  7535  7540      1
  7541  7540  7541      1
  7542  7540  7543      1
  7543  7540  7544      1
  7544  7541  7542      1
  7545  7541  7545      1
  7546  7541  7546      1
  7547  7542  7547      1
  7548  7547  7548      1
  7549  7547  7550      1
  7550  7547  7551      1
  7551  7548  7549      1
  7552  7548  7552      1
  7553  7548  7553      1
  7554  7549  7554      1
  7555  7554  7555      1
  7556  7554  7557      1
  7557  7554  7558      1
  7558  7555  7556      1
  7559  7555  7559      1
  7560  7555  7560      1
  7561  7556  7561      1
  7562  7561  7562      1
  7563  7561  7564      1
  7564  7561  7565      1
  7565  7562  7563      1
  7566  7562  7566      1
  7567  7562  7567      1
  7568  7563  7568      1
  7569  7568  7569      1
  7570  7568  7571      1
  7571  7568  7572      1
  7572  7569  7570      1
  7573  7569  7573      1
  7574  7569  7574      1
  7575  7570  7575      1
  7576  7575  7576      1
  7577  7575  7578      1
  7578  7575  7579      1
  7579  7576  7577      1
  7580  7576  7580      1
  7581  7576  7581      1
  7582  7577  7582      1
  7583  7582  7583      1
  7584  7582  7585      1
  7585  7582  7586      1
  7586  7583  7584      1
  7587  7583  7587      1
  7588  7583  7588      1
  7589  7584  7589      1
  7590  7589  7590      1
  7591  7589  7592      1
  7592  7589  7593      1
  7593  7590  7591      1
  7594  7590  7594      1
  7595  7590  7595      1
  7596  7591  7596      1
  7597  7596  7597      1
  7598  7596  7599      1
  7599  7596  7600      1
  7600  7597  7598      1
  7601  7597  7601      1
  7602  7597  7602      1
  7603  7598  7603      1
  7604  7603  7604      1
  7605  7603  7606      1
  7606  7603  7607      1
  7607  7604  7605      1
  7608  7604  7608      1
  7609  7604  7609      1
  7610  7605  7610      1
  7611  7610  7611      1
  7612  7610  7613      1
  7613  7610  7614      1
  7614  7611  7612      1
  7615  7611  7615      1
  7616  7611  7616      1
  7617  7612  7617      1
  7618  7617  7618      1
  7619  7617  7620      1
  7620  7617  7621      1
  7621  7618  7619      1
  7622  7618  7622      1
  7623  7618  7623      1
  7624  7619  7624      1
  7625  7624  7625      1
  7626  7624  7627      1
  7627  7624  7628      1
  7628  7625  7626      1
  7629  7625  7629      1
  7630  7625  7630      1
  7631  7626  7631      1
  7632  7631  7632      1
  7633  7631  7634      1
  7634  7631  7635      1
  7635  7632  7633      1
  7636  7632  7636      1
  7637  7632  7637      1
  7638  7633  7638      1
  7639  7638  7639      1
  7640  7638  7641      1
  7641  7638  7642      1
  7642  7639  7640      1
  7643  7639  7643      1
  7644  7639  7644      1
  7645  7640  7645      1
  7646  7645  7646      1
  7647  7645  7648      1
  7648  7645  7649      1
  7649  7646  7647      1
  7650  7646  7650      1
  7651  7646  7651      1
  7652  7647  7652      1
  7653  7652  7653      1
  7654  7652  7655      1
  7655  7652  7656      1
  7656  7653  7654      1
  7657  7653  7657      1
  7658  7653  7658      1
  7659  7654  7659      1
  7660  7659  7660      1
  7661  7659  7662      1
  7662  7659  7663      1
  7663  7660  7661      1
  7664  7660  7664      1
  7665  7660  7665      1
  7666  7661  7666      1
  7667  7666  7667      1
  7668  7666  7669      1
  7669  7666  7670      1
  7670  7667  7668      1
  7671  7667  7671      1
  7672  7667  7672      1
  7673  7668  7673      1
  7674  7673  7674      1
  7675  7673  7676      1
  7676  7673  7677      1
  7677  7674  7675      1
  7678  7674  7678      1
  7679  7674  7679      1
  7680  7675  7680      1
  7681  7680  7681      1
  7682  7680  7683      1
  7683  7680  7684      1
  7684  7681  7682      1
  7685  7681  7685      1
  7686  7681  7686      1
  7687  7682  7687      1
  7688  7687  7688      1
  7689  7687  7690      1
  7690  7687  7691      1
  7691  7688  7689      1
  7692  7688  7692      1
  7693  7688  7693      1
  7694  7689  7694      1
  7695  7694  7695      1
  7696  7694  7697      1
  7697  7694  7698      1
  7698  7695  7696      1
  7699  7695  7699      1
  7700  7695  7700      1
  7701  7696  7701      1
  7702  7701  7702      1
  7703  7701  7704      1
  7704  7701  7705      1
  7705  7702  7703      1
  7706  7702  7706      1
  7707  7702  7707      1
  7708  7703  7708      1
  7709  7708  7709      1
  7710  7708  7711      1
  7711  7708  7712      1
  7712  7709  7710      1
  7713  7709  7713      1
  7714  7709  7714      1
  7715  7710  7715      1
  7716  7715  7716      1
  7717  7715  7718      1
  7718  7715  7719      1
  7719  7716  7717      1
  7720  7716  7720      1
  7721  7716  7721      1
  7722  7717  7722      1
  7723  7722  7723      1
  7724  7722  7725      1
  7725  7722  7726      1
  7726  7723  7724      1
  7727  7723  7727      1
  7728  7723  7728      1
  7729  7724  7729      1
  7730  7729  7730      1
  7731  7729  7732      1
  7732  7729  7733      1
  7733  7730  7731      1
  7734  7730  7734      1
  7735  7730  7735      1
  7736  7731  7736      1
  7737  7736  7737      1
  7738  7736  7739      1
  7739  7736  7740      1
  7740  7737  7738      1
  7741  7737  7741      1
  7742  7737  7742      1
  7743  7738  7743      1
  7744  7743  7744      1
  7745  7743  7746      1
  7746  7743  7747      1
  7747  7744  7745      1
  7748  7744  7748      1
  7749  7744  7749      1
  7750  7745  7750      1
  7751  7750  7751      1
  7752  7750  7753      1
  7753  7750  7754      1
  7754  7751  7752      1
  7755  7751  7755      1
  7756  7751  7756      1
  7757  7752  7757      1
  7758  7757  7758      1
  7759  7757  7760      1
  7760  7757  7761      1
  7761  7758  7759      1
  7762  7758  7762      1
  7763  7758  7763      1
  7764  7759  7764      1
  7765  7764  7765      1
  7766  7764  7767      1
  7767  7764  7768      1
  7768  7765  7766      1
  7769  7765  7769      1
  7770  7765  7770      1
  7771  7766  7771      1
  7772  7771  7772      1
  7773  7771  7774      1
  7774  7771  7775      1
  7775  7772  7773      1
  7776  7772  7776      1
  7777  7772  7777      1
  7778  7773  7778      1
  7779  7778  7779      1
  7780  7778  7781      1
  7781  7778  7782      1
  7782  7779  7780      1
  7783  7779  7783      1
  7784  7779  7784      1
  7785  7780  7785      1
  7786  7785  7786      1
  7787  7785  7788      1
  7788  7785  7789      1
  7789  7786  7787      1
  7790  7786  7790      1
  7791  7786  7791      1
  7792  7787  7792      1
  7793  7792  7793      1
  7794  7792  7795      1
  7795  7792  7796      1
  7796  7793  7794      1
  7797  7793  7797      1
  7798  7793  7798      1
  7799  7794  7799      1
  7800  7799  7800      1
  7801  7799  7802      1
  7802  7799  7803      1
  7803  7800  7801      1
  7804  7800  7804      1
  7805  7800  7805      1
  7806  7801  7806      1
  7807  7806  7807      1
  7808  7806  7809      1
  7809  7806  7810      1
  7810  7807  7808      1
  7811  7807  7811      1
  7812  7807  7812      1
  7813  7808  7813      1
  7814  7813  7814      1
  7815  7813  7816      1
  7816  7813  7817      1
  7817  7814  7815      1
  7818  7814  7818      1
  7819  7814  7819      1
  7820  7815  7820      1
  7821  7820  7821      1
  7822  7820  7823      1
  7823  7820  7824      1
  7824  7821  7822      1
  7825  7821  7825      1
  7826  7821  7826      1
  7827  7822  7827      1
  7828  7827  7828      1
  7829  7827  7830      1
  7830  7827  7831      1
  7831  7828  7829      1
  7832  7828  7832      1
  7833  7828  7833      1
  7834  7829  7834      1
  7835  7834  7835      1
  7836  7834  7837      1
  7837  7834  7838      1
  7838  7835  7836      1
  7839  7835  7839      1
  7840  7835  7840      1
  7841  7836  7841      1
  7842  7841  7842      1
  7843  7841  7844      1
  7844  7841  7845      1
  7845  7842  7843      1
  7846  7842  7846      1
  7847  7842  7847      1
  7848  7843  7848      1
  7849  7848  7849      1
  7850  7848  7851      1
  7851  7848  7852      1
  7852  7849  7850      1
  7853  7849  7853      1
  7854  7849  7854      1
  7855  7850  7855      1
  7856  7855  7856      1
  7857  7855  7858      1
  7858  7855  7859      1
  7859  7856  7857      1
  7860  7856  7860      1
  7861  7856  7861      1
  7862  7857  7862      1
  7863  7862  7863      1
  7864  7862  7865      1
  7865  7862  7866      1
  7866  7863  7864      1
  7867  7863  7867      1
  7868  7863  7868      1
  7869  7864  7869      1
  7870  7869  7870      1
  7871  7869  7872      1
  7872  7869  7873      1
  7873  7870  7871      1
  7874  7870  7874      1
  7875  7870  7875      1
  7876  7871  7876      1
  7877  7876  7877      1
  7878  7876  7879      1
  7879  7876  7880      1
  7880  7877  7878      1
  7881  7877  7881      1
  7882  7877  7882      1
  7883  7878  7883      1
  7884  7883  7884      1
  7885  7883  7886      1
  7886  7883  7887      1
  7887  7884  7885      1
  7888  7884  7888      1
  7889  7884  7889      1
  7890  7885  7890      1
  7891  7890  7891      1
  7892  7890  7893      1
  7893  7890  7894      1
  7894  7891  7892      1
  7895  7891  7895      1
  7896  7891  7896      1
  7897  7892  7897      1
  7898  7897  7898      1
  7899  7897  7900      1
  7900  7897  7901      1
  7901  7898  7899      1
  7902  7898  7902      1
  7903  7898  7903      1
  7904  7899  7904      1
  7905  7904  7905      1
  7906  7904  7907      1
  7907  7904  7908      1
  7908  7905  7906      1
  7909  7905  7909      1
  7910  7905  7910      1
  7911  7906  7911      1
  7912  7911  7912      1
  7913  7911  7914      1
  7914  7911  7915      1
  7915  7912  7913      1
  7916  7912  7916      1
  7917  7912  7917      1
  7918  7913  7918      1
  7919  7918  7919      1
  7920  7918  7921      1
  7921  7918  7922      1
  7922  7919  7920      1
  7923  7919  7923      1
  7924  7919  7924      1
  7925  7920  7925      1
  7926  7925  7926      1
  7927  7925  7928      1
  7928  7925  7929      1
  7929  7926  7927      1
  7930  7926  7930      1
  7931  7926  7931      1
  7932  7927  7932      1
  7933  7932  7933      1
  7934  7932  7935      1
  7935  7932  7936      1
  7936  7933  7934      1
  7937  7933  7937      1
  7938  7933  7938      1
  7939  7934  7939      1
  7940  7939  7940      1
  7941  7939  7942      1
  7942  7939  7943      1
  7943  7940  7941      1
  7944  7940  7944      1
  7945  7940  7945      1
  7946  7941  7946      1
  7947  7946  7947      1
  7948  7946  7949      1
  7949  7946  7950      1
  7950  7947  7948      1
  7951  7947  7951      1
  7952  7947  7952      1
  7953  7948  7953      1
  7954  7953  7954      1
  7955  7953  7956      1
  7956  7953  7957      1
  7957  7954  7955      1
  7958  7954  7958      1
  7959  7954  7959      1
  7960  7955  7960      1
  7961  7960  7961      1
  7962  7960  7963      1
  7963  7960  7964      1
  7964  7961  7962      1
  7965  7961  7965      1
  7966  7961  7966      1
  7967  7962  7967      1
  7968  7967  7968      1
  7969  7967  7970      1
  7970  7967  7971      1
  7971  7968  7969      1
  7972  7968  7972      1
  7973  7968  7973      1
  7974  7969  7974      1
  7975  7974  7975      1
  7976  7974  7977      1
  7977  7974  7978      1
  7978  7975  7976      1
  7979  7975  7979      1
  7980  7975  7980      1
  7981  7976  7981      1
  7982  7981  7982      1
  7983  7981  7984      1
  7984  7981  7985      1
  7985  7982  7983      1
  7986  7982  7986      1
  7987  7982  7987      1
  7988  7983  7988      1
  7989  7988  7989      1
  7990  7988  7991      1
  7991  7988  7992      1
  7992  7989  7990      1
  7993  7989  7993      1
  7994  7989  7994      1
  7995  7990  7995      1
  7996  7995  7996      1
  7997  7995  7998      1
  7998  7995  7999      1
  7999  7996  7997      1
  8000  7996  8000      1
  8001  7996  8001      1
  8002  7997  8002      1
  8003  8002  8003      1
  8004  8002  8005      1
  8005  8002  8006      1
  8006  8003  8004      1
  8007  8003  8007      1
  8008  8003  8008      1
  8009  8004  8009      1
  8010  8009  8010      1
  8011  8009  8012      1
  8012  8009  8013      1
  8013  8010  8011      1
  8014  8010  8014      1
  8015  8010  8015      1
  8016  8011  8016      1
  8017  8016  8017      1
  8018  8016  8019      1
  8019  8016  8020      1
  8020  8017  8018      1
  8021  8017  8021      1
  8022  8017  8022      1
  8023  8018  8023      1
  8024  8023  8024      1
  8025  8023  8026      1
  8026  8023  8027      1
  8027  8024  8025      1
  8028  8024  8028      1
  8029  8024  8029      1
  8030  8025  8030      1
  8031  8030  8031      1
  8032  8030  8033      1
  8033  8030  8034      1
  8034  8031  8032      1
  8035  8031  8035      1
  8036  8031  8036      1
  8037  8032  8037      1
  8038  8037  8038      1
  8039  8037  8040      1
  8040  8037  8041      1
  8041  8038  8039      1
  8042  8038  8042      1
  8043  8038  8043      1
  8044  8039  8044      1
  8045  8044  8045      1
  8046  8044  8047      1
  8047  8044  8048      1
  8048  8045  8046      1
  8049  8045  8049      1
  8050  8045  8050      1
  8051  8046  8051      1
  8052  8051  8052      1
  8053  8051  8054      1
  8054  8051  8055      1
  8055  8052  8053      1
  8056  8052  8056      1
  8057  8052  8057      1
  8058  8053  8058      1
  8059  8058  8059      1
  8060  8058  8061      1
  8061  8058  8062      1
  8062  8059  8060      1
  8063  8059  8063      1
  8064  8059  8064      1
  8065  8060  8065      1
  8066  8065  8066      1
  8067  8065  8068      1
  8068  8065  8069      1
  8069  8066  8067      1
  8070  8066  8070      1
  8071  8066  8071      1
  8072  8067  8072      1
  8073  8072  8073      1
  8074  8072  8075      1
  8075  8072  8076      1
  8076  8073  8074      1
  8077  8073  8077      1
  8078  8073  8078      1
  8079  8074  8079      1
  8080  8079  8080      1
  8081  8079  8082      1
  8082  8079  8083      1
  8083  8080  8081      1
  8084  8080  8084      1
  8085  8080  8085      1
  8086  8081  8086      1
  8087  8086  8087      1
  8088  8086  8089      1
  8089  8086  8090      1
  8090  8087  8088      1
  8091  8087  8091      1
  8092  8087  8092      1
  8093  8088  8093      1
  8094  8093  8094      1
  8095  8093  8096      1
  8096  8093  8097      1
  8097  8094  8095      1
  8098  8094  8098      1
  8099  8094  8099      1
  8100  8095  8100      1
  8101  8100  8101      1
  8102  8100  8103      1
  8103  8100  8104      1
  8104  8101  8102      1
  8105  8101  8105      1
  8106  8101  8106      1
  8107  8102  8107      1
  8108  8107  8108      1
  8109  8107  8110      1
  8110  8107  8111      1
  8111  8108  8109      1
  8112  8108  8112      1
  8113  8108  8113      1
  8114  8109  8114      1
  8115  8114  8115      1
  8116  8114  8117      1
  8117  8114  8118      1
  8118  8115  8116      1
  8119  8115  8119      1
  8120  8115  8120      1
  8121  8116  8121      1
  8122  8121  8122      1
  8123  8121  8124      1
  8124  8121  8125      1
  8125  8122  8123      1
  8126  8122  8126      1
  8127  8122  8127      1
  8128  8123  8128      1
  8129  8128  8129      1
  8130  8128  8131      1
  8131  8128  8132      1
  8132  8129  8130      1
  8133  8129  8133      1
  8134  8129  8134      1
  8135  8130  8135      1
  8136  8135  8136      1
  8137  8135  8138      1
  8138  8135  8139      1
  8139  8136  8137      1
  8140  8136  8140      1
  8141  8136  8141      1
  8142  8137  8142      1
  8143  8142  8143      1
  8144  8142  8145      1
  8145  8142  8146      1
  8146  8143  8144      1
  8147  8143  8147      1
  8148  8143  8148      1
  8149  8144  8149      1
  8150  8149  8150      1
  8151  8149  8152      1
  8152  8149  8153      1
  8153  8150  8151      1
  8154  8150  8154      1
  8155  8150  8155      1
  8156  8151  8156      1
  8157  8156  8157      1
  8158  8156  8159      1
  8159  8156  8160      1
  8160  8157  8158      1
  8161  8157  8161      1
  8162  8157  8162      1
  8163  8158  8163      1
  8164  8163  8164      1
  8165  8163  8166      1
  8166  8163  8167      1
  8167  8164  8165      1
  8168  8164  8168      1
  8169  8164  8169      1
  8170  8165  8170      1
  8171  8170  8171      1
  8172  8170  8173      1
  8173  8170  8174      1
  8174  8171  8172      1
  8175  8171  8175      1
  8176  8171  8176      1
  8177  8172  8177      1
  8178  8177  8178      1
  8179  8177  8180      1
  8180  8177  8181      1
  8181  8178  8179      1
  8182  8178  8182      1
  8183  8178  8183      1
  8184  8179  8184      1
  8185  8184  8185      1
  8186  8184  8187      1
  8187  8184  8188      1
  8188  8185  8186      1
  8189  8185  8189      1
  8190  8185  8190      1
  8191  8186  8191      1
  8192  8191  8192      1
  8193  8191  8194      1
  8194  8191  8195      1
  8195  8192  8193      1
  8196  8192  8196      1
  8197  8192  8197      1
  8198  8193  8198      1
  8199  8198  8199      1
  8200  8198  8201      1
  8201  8198  8202      1
  8202  8199  8200      1
  8203  8199  8203      1
  8204  8199  8204      1
  8205  8200  8205      1
  8206  8205  8206      1
  8207  8205  8208      1
  8208  8205  8209      1
  8209  8206  8207      1
  8210  8206  8210      1
  8211  8206  8211      1
  8212  8207  8212      1
  8213  8212  8213      1
  8214  8212  8215      1
  8215  8212  8216      1
  8216  8213  8214      1
  8217  8213  8217      1
  8218  8213  8218      1
  8219  8214  8219      1
  8220  8219  8220      1
  8221  8219  8222      1
  8222  8219  8223      1
  8223  8220  8221      1
  8224  8220  8224      1
  8225  8220  8225      1
  8226  8221  8226      1
  8227  8226  8227      1
  8228  8226  8229      1
  8229  8226  8230      1
  8230  8227  8228      1
  8231  8227  8231      1
  8232  8227  8232      1
  8233  8228  8233      1
  8234  8233  8234      1
  8235  8233  8236      1
  8236  8233  8237      1
  8237  8234  8235      1
  8238  8234  8238      1
  8239  8234  8239      1
  8240  8235  8240      1
  8241  8240  8241      1
  8242  8240  8243      1
  8243  8240  8244      1
  8244  8241  8242      1
  8245  8241  8245      1
  8246  8241  8246      1
  8247  8242  8247      1
  8248  8247  8248      1
  8249  8247  8250      1
  8250  8247  8251      1
  8251  8248  8249      1
  8252  8248  8252      1
  8253  8248  8253      1
  8254  8249  8254      1
  8255  8254  8255      1
  8256  8254  8257      1
  8257  8254  8258      1
  8258  8255  8256      1
  8259  8255  8259      1
  8260  8255  8260      1
  8261  8256  8261      1
  8262  8261  8262      1
  8263  8261  8264      1
  8264  8261  8265      1
  8265  8262  8263      1
  8266  8262  8266      1
  8267  8262  8267      1
  8268  8263  8268      1
  8269  8268  8269      1
  8270  8268  8271      1
  8271  8268  8272      1
  8272  8269  8270      1
  8273  8269  8273      1
  8274  8269  8274      1
  8275  8270  8275      1
  8276  8275  8276      1
  8277  8275  8278      1
  8278  8275  8279      1
  8279  8276  8277      1
  8280  8276  8280      1
  8281  8276  8281      1
  8282  8277  8282      1
  8283  8282  8283      1
  8284  8282  8285      1
  8285  8282  8286      1
  8286  8283  8284      1
  8287  8283  8287      1
  8288  8283  8288      1
  8289  8284  8289      1
  8290  8289  8290      1
  8291  8289  8292      1
  8292  8289  8293      1
  8293  8290  8291      1
  8294  8290  8294      1
  8295  8290  8295      1
  8296  8291  8296      1
  8297  8296  8297      1
  8298  8296  8299      1
  8299  8296  8300      1
  8300  8297  8298      1
  8301  8297  8301      1
  8302  8297  8302      1
  8303  8298  8303      1
  8304  8303  8304      1
  8305  8303  8306      1
  8306  8303  8307      1
  8307  8304  8305      1
  8308  8304  8308      1
  8309  8304  8309      1
  8310  8305  8310      1
  8311  8310  8311      1
  8312  8310  8313      1
  8313  8310  8314      1
  8314  8311  8312      1
  8315  8311  8315      1
  8316  8311  8316      1
  8317  8312  8317      1
  8318  8317  8318      1
  8319  8317  8320      1
  8320  8317  8321      1
  8321  8318  8319      1
  8322  8318  8322      1
  8323  8318  8323      1
  8324  8319  8324      1
  8325  8324  8325      1
  8326  8324  8327      1
  8327  8324  8328      1
  8328  8325  8326      1
  8329  8325  8329      1
  8330  8325  8330      1
  8331  8326  8331      1
  8332  8331  8332      1
  8333  8331  8334      1
  8334  8331  8335      1
  8335  8332  8333      1
  8336  8332  8336      1
  8337  8332  8337      1
  8338  8333  8338      1
  8339  8338  8339      1
  8340  8338  8341      1
  8341  8338  8342      1
  8342  8339  8340      1
  8343  8339  8343      1
  8344  8339  8344      1
  8345  8340  8345      1
  8346  8345  8346      1
  8347  8345  8348      1
  8348  8345  8349      1
  8349  8346  8347      1
  8350  8346  8350      1
  8351  8346  8351      1
  8352  8347  8352      1
  8353  8352  8353      1
  8354  8352  8355      1
  8355  8352  8356      1
  8356  8353  8354      1
  8357  8353  8357      1
  8358  8353  8358      1
  8359  8354  8359      1
  8360  8359  8360      1
  8361  8359  8362      1
  8362  8359  8363      1
  8363  8360  8361      1
  8364  8360  8364      1
  8365  8360  8365      1
  8366  8361  8366      1
  8367  8366  8367      1
  8368  8366  8369      1
  8369  8366  8370      1
  8370  8367  8368      1
  8371  8367  8371      1
  8372  8367  8372      1
  8373  8368  8373      1
  8374  8373  8374      1
  8375  8373  8376      1
  8376  8373  8377      1
  8377  8374  8375      1
  8378  8374  8378      1
  8379  8374  8379      1
  8380  8375  8380      1
  8381  8380  8381      1
  8382  8380  8383      1
  8383  8380  8384      1
  8384  8381  8382      1
  8385  8381  8385      1
  8386  8381  8386      1
  8387  8382  8387      1
  8388  8387  8388      1
  8389  8387  8390      1
  8390  8387  8391      1
  8391  8388  8389      1
  8392  8388  8392      1
  8393  8388  8393      1
  8394  8389  8394      1
  8395  8394  8395      1
  8396  8394  8397      1
  8397  8394  8398      1
  8398  8395  8396      1
  8399  8395  8399      1
  8400  8395  8400      1
  8401  8396  8401      1
  8402  8401  8402      1
  8403  8401  8404      1
  8404  8401  8405      1
  8405  8402  8403      1
  8406  8402  8406      1
  8407  8402  8407      1
  8408  8403  8408      1
  8409  8408  8409      1
  8410  8408  8411      1
  8411  8408  8412      1
  8412  8409  8410      1
  8413  8409  8413      1
  8414  8409  8414      1
  8415  8410  8415      1
  8416  8415  8416      1
  8417  8415  8418      1
  8418  8415  8419      1
  8419  8416  8417      1
  8420  8416  8420      1
  8421  8416  8421      1
  8422  8417  8422      1
  8423  8422  8423      1
  8424  8422  8425      1
  8425  8422  8426      1
  8426  8423  8424      1
  8427  8423  8427      1
  8428  8423  8428      1
  8429  8424  8429      1
  8430  8429  8430      1
  8431  8429  8432      1
  8432  8429  8433      1
  8433  8430  8431      1
  8434  8430  8434      1
  8435  8430  8435      1
  8436  8431  8436      1
  8437  8436  8437      1
  8438  8436  8439      1
  8439  8436  8440      1
  8440  8437  8438      1
  8441  8437  8441      1
  8442  8437  8442      1
  8443  8438  8443      1
  8444  8443  8444      1
  8445  8443  8446      1
  8446  8443  8447      1
  8447  8444  8445      1
  8448  8444  8448      1
  8449  8444  8449      1
  8450  8445  8450      1
  8451  8450  8451      1
  8452  8450  8453      1
  8453  8450  8454      1
  8454  8451  8452      1
  8455  8451  8455      1
  8456  8451  8456      1
  8457  8452  8457      1
  8458  8457  8458      1
  8459  8457  8460      1
  8460  8457  8461      1
  8461  8458  8459      1
  8462  8458  8462      1
  8463  8458  8463      1
  8464  8459  8464      1
  8465  8464  8465      1
  8466  8464  8467      1
  8467  8464  8468      1
  8468  8465  8466      1
  8469  8465  8469      1
  8470  8465  8470      1
  8471  8466  8471      1
  8472  8471  8472      1
  8473  8471  8474      1
  8474  8471  8475      1
  8475  8472  8473      1
  8476  8472  8476      1
  8477  8472  8477      1
  8478  8473  8478      1
  8479  8478  8479      1
  8480  8478  8481      1
  8481  8478  8482      1
  8482  8479  8480      1
  8483  8479  8483      1
  8484  8479  8484      1
  8485  8480  8485      1
  8486  8485  8486      1
  8487  8485  8488      1
  8488  8485  8489      1
  8489  8486  8487      1
  8490  8486  8490      1
  8491  8486  8491      1
  8492  8487  8492      1
  8493  8492  8493      1
  8494  8492  8495      1
  8495  8492  8496      1
  8496  8493  8494      1
  8497  8493  8497      1
  8498  8493  8498      1
  8499  8494  8499      1
  8500  8499  8500      1
  8501  8499  8502      1
  8502  8499  8503      1
  8503  8500  8501      1
  8504  8500  8504      1
  8505  8500  8505      1
  8506  8501  8506      1
  8507  8506  8507      1
  8508  8506  8509      1
  8509  8506  8510      1
  8510  8507  8508      1
  8511  8507  8511      1
  8512  8507  8512      1
  8513  8508  8513      1
  8514  8513  8514      1
  8515  8513  8516      1
  8516  8513  8517      1
  8517  8514  8515      1
  8518  8514  8518      1
  8519  8514  8519      1
  8520  8515  8520      1
  8521  8520  8521      1
  8522  8520  8523      1
  8523  8520  8524      1
  8524  8521  8522      1
  8525  8521  8525      1
  8526  8521  8526      1
  8527  8522  8527      1
  8528  8527  8528      1
  8529  8527  8530      1
  8530  8527  8531      1
  8531  8528  8529      1
  8532  8528  8532      1
  8533  8528  8533      1
  8534  8529  8534      1
  8535  8534  8535      1
  8536  8534  8537      1
  8537  8534  8538      1
  8538  8535  8536      1
  8539  8535  8539      1
  8540  8535  8540      1
  8541  8536  8541      1
  8542  8541  8542      1
  8543  8541  8544      1
  8544  8541  8545      1
  8545  8542  8543      1
  8546  8542  8546      1
  8547  8542  8547      1
  8548  8543  8548      1
  8549  8548  8549      1
  8550  8548  8551      1
  8551  8548  8552      1
  8552  8549  8550      1
  8553  8549  8553      1
  8554  8549  8554      1
  8555  8550  8555      1
  8556  8555  8556      1
  8557  8555  8558      1
  8558  8555  8559      1
  8559  8556  8557      1
  8560  8556  8560      1
  8561  8556  8561      1
  8562  8557  8562      1
  8563  8562  8563      1
  8564  8562  8565      1
  8565  8562  8566      1
  8566  8563  8564      1
  8567  8563  8567      1
  8568  8563  8568      1
  8569  8564  8569      1
  8570  8569  8570      1
  8571  8569  8572      1
  8572  8569  8573      1
  8573  8570  8571      1
  8574  8570  8574      1
  8575  8570  8575      1
  8576  8571  8576      1
  8577  8576  8577      1
  8578  8576  8579      1
  8579  8576  8580      1
  8580  8577  8578      1
  8581  8577  8581      1
  8582  8577  8582      1
  8583  8578  8583      1
  8584  8583  8584      1
  8585  8583  8586      1
  8586  8583  8587      1
  8587  8584  8585      1
  8588  8584  8588      1
  8589  8584  8589      1
  8590  8585  8590      1
  8591  8590  8591      1
  8592  8590  8593      1
  8593  8590  8594      1
  8594  8591  8592      1
  8595  8591  8595      1
  8596  8591  8596      1
  8597  8592  8597      1
  8598  8597  8598      1
  8599  8597  8600      1
  8600  8597  8601      1
  8601  8598  8599      1
  8602  8598  8602      1
  8603  8598  8603      1
  8604  8599  8604      1
  8605  8604  8605      1
  8606  8604  8607      1
  8607  8604  8608      1
  8608  8605  8606      1
  8609  8605  8609      1
  8610  8605  8610      1
  8611  8606  8611      1
  8612  8611  8612      1
  8613  8611  8614      1
  8614  8611  8615      1
  8615  8612  8613      1
  8616  8612  8616      1
  8617  8612  8617      1
  8618  8613  8618      1
  8619  8618  8619      1
  8620  8618  8621      1
  8621  8618  8622      1
  8622  8619  8620      1
  8623  8619  8623      1
  8624  8619  8624      1
  8625  8620  8625      1
  8626  8625  8626      1
  8627  8625  8628      1
  8628  8625  8629      1
  8629  8626  8627      1
  8630  8626  8630      1
  8631  8626  8631      1
  8632  8627  8632      1
  8633  8632  8633      1
  8634  8632  8635      1
  8635  8632  8636      1
  8636  8633  8634      1
  8637  8633  8637      1
  8638  8633  8638      1
  8639  8634  8639      1
  8640  8639  8640      1
  8641  8639  8642      1
  8642  8639  8643      1
  8643  8640  8641      1
  8644  8640  8644      1
  8645  8640  8645      1
  8646  8641  8646      1
  8647  8646  8647      1
  8648  8646  8649      1
  8649  8646  8650      1
  8650  8647  8648      1
  8651  8647  8651      1
  8652  8647  8652      1
  8653  8648  8653      1
  8654  8653  8654      1
  8655  8653  8656      1
  8656  8653  8657      1
  8657  8654  8655      1
  8658  8654  8658      1
  8659  8654  8659      1
  8660  8655  8660      1
  8661  8660  8661      1
  8662  8660  8663      1
  8663  8660  8664      1
  8664  8661  8662      1
  8665  8661  8665      1
  8666  8661  8666      1
  8667  8662  8667      1
  8668  8667  8668      1
  8669  8667  8670      1
  8670  8667  8671      1
  8671  8668  8669      1
  8672  8668  8672      1
  8673  8668  8673      1
  8674  8669  8674      1
  8675  8674  8675      1
  8676  8674  8677      1
  8677  8674  8678      1
  8678  8675  8676      1
  8679  8675  8679      1
  8680  8675  8680      1
  8681  8676  8681      1
  8682  8681  8682      1
  8683  8681  8684      1
  8684  8681  8685      1
  8685  8682  8683      1
  8686  8682  8686      1
  8687  8682  8687      1
  8688  8683  8688      1
  8689  8688  8689      1
  8690  8688  8691      1
  8691  8688  8692      1
  8692  8689  8690      1
  8693  8689  8693      1
  8694  8689  8694      1
  8695  8690  8695      1
  8696  8695  8696      1
  8697  8695  8698      1
  8698  8695  8699      1
  8699  8696  8697      1
  8700  8696  8700      1
  8701  8696  8701      1
  8702  8697  8702      1
  8703  8702  8703      1
  8704  8702  8705      1
  8705  8702  8706      1
  8706  8703  8704      1
  8707  8703  8707      1
  8708  8703  8708      1
  8709  8704  8709      1
  8710  8709  8710      1
  8711  8709  8712      1
  8712  8709  8713      1
  8713  8710  8711      1
  8714  8710  8714      1
  8715  8710  8715      1
  8716  8711  8716      1
  8717  8716  8717      1
  8718  8716  8719      1
  8719  8716  8720      1
  8720  8717  8718      1
  8721  8717  8721      1
  8722  8717  8722      1
  8723  8718  8723      1
  8724  8723  8724      1
  8725  8723  8726      1
  8726  8723  8727      1
  8727  8724  8725      1
  8728  8724  8728      1
  8729  8724  8729      1
  8730  8725  8730      1
  8731  8730  8731      1
  8732  8730  8733      1
  8733  8730  8734      1
  8734  8731  8732      1
  8735  8731  8735      1
  8736  8731  8736      1
  8737  8732  8737      1
  8738  8737  8738      1
  8739  8737  8740      1
  8740  8737  8741      1
  8741  8738  8739      1
  8742  8738  8742      1
  8743  8738  8743      1
  8744  8739  8744      1
  8745  8744  8745      1
  8746  8744  8747      1
  8747  8744  8748      1
  8748  8745  8746      1
  8749  8745  8749      1
  8750  8745  8750      1
  8751  8746  8751      1
  8752  8751  8752      1
  8753  8751  8754      1
  8754  8751  8755      1
  8755  8752  8753      1
  8756  8752  8756      1
  8757  8752  8757      1
  8758  8753  8758      1
  8759  8758  8759      1
  8760  8758  8761      1
  8761  8758  8762      1
  8762  8759  8760      1
  8763  8759  8763      1
  8764  8759  8764      1
  8765  8760  8765      1
  8766  8765  8766      1
  8767  8765  8768      1
  8768  8765  8769      1
  8769  8766  8767      1
  8770  8766  8770      1
  8771  8766  8771      1
  8772  8767  8772      1
  8773  8772  8773      1
  8774  8772  8775      1
  8775  8772  8776      1
  8776  8773  8774      1
  8777  8773  8777      1
  8778  8773  8778      1
  8779  8774  8779      1
  8780  8779  8780      1
  8781  8779  8782      1
  8782  8779  8783      1
  8783  8780  8781      1
  8784  8780  8784      1
  8785  8780  8785      1
  8786  8781  8786      1
  8787  8786  8787      1
  8788  8786  8789      1
  8789  8786  8790      1
  8790  8787  8788      1
  8791  8787  8791      1
  8792  8787  8792      1
  8793  8788  8793      1
  8794  8793  8794      1
  8795  8793  8796      1
  8796  8793  8797      1
  8797  8794  8795      1
  8798  8794  8798      1
  8799  8794  8799      1
  8800  8795  8800      1
  8801  8800  8801      1
  8802  8800  8803      1
  8803  8800  8804      1
  8804  8801  8802      1
  8805  8801  8805      1
  8806  8801  8806      1
  8807  8802  8807      1
  8808  8807  8808      1
  8809  8807  8810      1
  8810  8807  8811      1
  8811  8808  8809      1
  8812  8808  8812      1
  8813  8808  8813      1
  8814  8809  8814      1
  8815  8814  8815      1
  8816  8814  8817      1
  8817  8814  8818      1
  8818  8815  8816      1
  8819  8815  8819      1
  8820  8815  8820      1
  8821  8816  8821      1
  8822  8821  8822      1
  8823  8821  8824      1
  8824  8821  8825      1
  8825  8822  8823      1
  8826  8822  8826      1
  8827  8822  8827      1
  8828  8823  8828      1
  8829  8828  8829      1
  8830  8828  8831      1
  8831  8828  8832      1
  8832  8829  8830      1
  8833  8829  8833      1
  8834  8829  8834      1
  8835  8830  8835      1
  8836  8835  8836      1
  8837  8835  8838      1
  8838  8835  8839      1
  8839  8836  8837      1
  8840  8836  8840      1
  8841  8836  8841      1
  8842  8837  8842      1
  8843  8842  8843      1
  8844  8842  8845      1
  8845  8842  8846      1
  8846  8843  8844      1
  8847  8843  8847      1
  8848  8843  8848      1
  8849  8844  8849      1
  8850  8849  8850      1
  8851  8849  8852      1
  8852  8849  8853      1
  8853  8850  8851      1
  8854  8850  8854      1
  8855  8850  8855      1
  8856  8851  8856      1
  8857  8856  8857      1
  8858  8856  8859      1
  8859  8856  8860      1
  8860  8857  8858      1
  8861  8857  8861      1
  8862  8857  8862      1
  8863  8858  8863      1
  8864  8863  8864      1
  8865  8863  8866      1
  8866  8863  8867      1
  8867  8864  8865      1
  8868  8864  8868      1
  8869  8864  8869      1
  8870  8865  8870      1
  8871  8870  8871      1
  8872  8870  8873      1
  8873  8870  8874      1
  8874  8871  8872      1
  8875  8871  8875      1
  8876  8871  8876      1
  8877  8872  8877      1
  8878  8877  8878      1
  8879  8877  8880      1
  8880  8877  8881      1
  8881  8878  8879      1
  8882  8878  8882      1
  8883  8878  8883      1
  8884  8879  8884      1
  8885  8884  8885      1
  8886  8884  8887      1
  8887  8884  8888      1
  8888  8885  8886      1
  8889  8885  8889      1
  8890  8885  8890      1
  8891  8886  8891      1
  8892  8891  8892      1
  8893  8891  8894      1
  8894  8891  8895      1
  8895  8892  8893      1
  8896  8892  8896      1
  8897  8892  8897      1
  8898  8893  8898      1
  8899  8898  8899      1
  8900  8898  8901      1
  8901  8898  8902      1
  8902  8899  8900      1
  8903  8899  8903      1
  8904  8899  8904      1
  8905  8900  8905      1
  8906  8905  8906      1
  8907  8905  8908      1
  8908  8905  8909      1
  8909  8906  8907      1
  8910  8906  8910      1
  8911  8906  8911      1
  8912  8907  8912      1
  8913  8912  8913      1
  8914  8912  8915      1
  8915  8912  8916      1
  8916  8913  8914      1
  8917  8913  8917      1
  8918  8913  8918      1
  8919  8914  8919      1
  8920  8919  8920      1
  8921  8919  8922      1
  8922  8919  8923      1
  8923  8920  8921      1
  8924  8920  8924      1
  8925  8920  8925      1
  8926  8921  8926      1
  8927  8926  8927      1
  8928  8926  8929      1
  8929  8926  8930      1
  8930  8927  8928      1
  8931  8927  8931      1
  8932  8927  8932      1
  8933  8928  8933      1
  8934  8933  8934      1
  8935  8933  8936      1
  8936  8933  8937      1
  8937  8934  8935      1
  8938  8934  8938      1
  8939  8934  8939      1
  8940  8935  8940      1
  8941  8940  8941      1
  8942  8940  8943      1
  8943  8940  8944      1
  8944  8941  8942      1
  8945  8941  8945      1
  8946  8941  8946      1
  8947  8942  8947      1
  8948  8947  8948      1
  8949  8947  8950      1
  8950  8947  8951      1
  8951  8948  8949      1
  8952  8948  8952      1
  8953  8948  8953      1
  8954  8949  8954      1
  8955  8954  8955      1
  8956  8954  8957      1
  8957  8954  8958      1
  8958  8955  8956      1
  8959  8955  8959      1
  8960  8955  8960      1
  8961  8956  8961      1
  8962  8961  8962      1
  8963  8961  8964      1
  8964  8961  8965      1
  8965  8962  8963      1
  8966  8962  8966      1
  8967  8962  8967      1
  8968  8963  8968      1
  8969  8968  8969      1
  8970  8968  8971      1
  8971  8968  8972      1
  8972  8969  8970      1
  8973  8969  8973      1
  8974  8969  8974      1
  8975  8970  8975      1
  8976  8975  8976      1
  8977  8975  8978      1
  8978  8975  8979      1
  8979  8976  8977      1
  8980  8976  8980      1
  8981  8976  8981      1
  8982  8977  8982      1
  8983  8982  8983      1
  8984  8982  8985      1
  8985  8982  8986      1
  8986  8983  8984      1
  8987  8983  8987      1
  8988  8983  8988      1
  8989  8984  8989      1
  8990  8989  8990      1
  8991  8989  8992      1
  8992  8989  8993      1
  8993  8990  8991      1
  8994  8990  8994      1
  8995  8990  8995      1
  8996  8991  8996      1
  8997  8996  8997      1
  8998  8996  8999      1
  8999  8996  9000      1
  9000  8997  8998      1
  9001  8997  9001      1
  9002  8997  9002      1
  9003  8998  9003      1
  9004  9003  9004      1
  9005  9003  9006      1
  9006  9003  9007      1
  9007  9004  9005      1
  9008  9004  9008      1
  9009  9004  9009      1
  9010  9005  9010      1
  9011  9010  9011      1
  9012  9010  9013      1
  9013  9010  9014      1
  9014  9011  9012      1
  9015  9011  9015      1
  9016  9011  9016      1
  9017  9012  9017      1
  9018  9017  9018      1
  9019  9017  9020      1
  9020  9017  9021      1
  9021  9018  9019      1
  9022  9018  9022      1
  9023  9018  9023      1
  9024  9019  9024      1
  9025  9024  9025      1
  9026  9024  9027      1
  9027  9024  9028      1
  9028  9025  9026      1
  9029  9025  9029      1
  9030  9025  9030      1
  9031  9026  9031      1
  9032  9031  9032      1
  9033  9031  9034      1
  9034  9031  9035      1
  9035  9032  9033      1
  9036  9032  9036      1
  9037  9032  9037      1
  9038  9033  9038      1
  9039  9038  9039      1
  9040  9038  9041      1
  9041  9038  9042      1
  9042  9039  9040      1
  9043  9039  9043      1
  9044  9039  9044      1
  9045  9040  9045      1
  9046  9045  9046      1
  9047  9045  9048      1
  9048  9045  9049      1
  9049  9046  9047      1
  9050  9046  9050      1
  9051  9046  9051      1
  9052  9047  9052      1
  9053  9052  9053      1
  9054  9052  9055      1
  9055  9052  9056      1
  9056  9053  9054      1
  9057  9053  9057      1
  9058  9053  9058      1
  9059  9054  9059      1
  9060  9059  9060      1
  9061  9059  9062      1
  9062  9059  9063      1
  9063  9060  9061      1
  9064  9060  9064      1
  9065  9060  9065      1
  9066  9061  9066      1
  9067  9066  9067      1
  9068  9066  9069      1
  9069  9066  9070      1
  9070  9067  9068      1
  9071  9067  9071      1
  9072  9067  9072      1
  9073  9068  9073      1
  9074  9073  9074      1
  9075  9073  9076      1
  9076  9073  9077      1
  9077  9074  9075      1
  9078  9074  9078      1
  9079  9074  9079      1
  9080  9075  9080      1
  9081  9080  9081      1
  9082  9080  9083      1
  9083  9080  9084      1
  9084  9081  9082      1
  9085  9081  9085      1
  9086  9081  9086      1
  9087  9082  9087      1
  9088  9087  9088      1
  9089  9087  9090      1
  9090  9087  9091      1
  9091  9088  9089      1
  9092  9088  9092      1
  9093  9088  9093      1
  9094  9089  9094      1
  9095  9094  9095      1
  9096  9094  9097      1
  9097  9094  9098      1
  9098  9095  9096      1
  9099  9095  9099      1
  9100  9095  9100      1
  9101  9096  9101      1
  9102  9101  9102      1
  9103  9101  9104      1
  9104  9101  9105      1
  9105  9102  9103      1
  9106  9102  9106      1
  9107  9102  9107      1
  9108  9103  9108      1
  9109  9108  9109      1
  9110  9108  9111      1
  9111  9108  9112      1
  9112  9109  9110      1
  9113  9109  9113      1
  9114  9109  9114      1
  9115  9110  9115      1
  9116  9115  9116      1
  9117  9115  9118      1
  9118  9115  9119      1
  9119  9116  9117      1
  9120  9116  9120      1
  9121  9116  9121      1
  9122  9117  9122      1
  9123  9122  9123      1
  9124  9122  9125      1
  9125  9122  9126      1
  9126  9123  9124      1
  9127  9123  9127      1
  9128  9123  9128      1
  9129  9124  9129      1
  9130  9129  9130      1
  9131  9129  9132      1
  9132  9129  9133      1
  9133  9130  9131      1
  9134  9130  9134      1
  9135  9130  9135      1
  9136  9131  9136      1
  9137  9136  9137      1
  9138  9136  9139      1
  9139  9136  9140      1
  9140  9137  9138      1
  9141  9137  9141      1
  9142  9137  9142      1
  9143  9138  9143      1
  9144  9143  9144      1
  9145  9143  9146      1
  9146  9143  9147      1
  9147  9144  9145      1
  9148  9144  9148      1
  9149  9144  9149      1
  9150  9145  9150      1
  9151  9150  9151      1
  9152  9150  9153      1
  9153  9150  9154      1
  9154  9151  9152      1
  9155  9151  9155      1
  9156  9151  9156      1
  9157  9152  9157      1
  9158  9157  9158      1
  9159  9157  9160      1
  9160  9157  9161      1
  9161  9158  9159      1
  9162  9158  9162      1
  9163  9158  9163      1
  9164  9159  9164      1
  9165  9164  9165      1
  9166  9164  9167      1
  9167  9164  9168      1
  9168  9165  9166      1
  9169  9165  9169      1
  9170  9165  9170      1
  9171  9166  9171      1
  9172  9171  9172      1
  9173  9171  9174      1
  9174  9171  9175      1
  9175  9172  9173      1
  9176  9172  9176      1
  9177  9172  9177      1
  9178  9173  9178      1
  9179  9178  9179      1
  9180  9178  9181      1
  9181  9178  9182      1
  9182  9179  9180      1
  9183  9179  9183      1
  9184  9179  9184      1
  9185  9180  9185      1
  9186  9185  9186      1
  9187  9185  9188      1
  9188  9185  9189      1
  9189  9186  9187      1
  9190  9186  9190      1
  9191  9186  9191      1
  9192  9187  9192      1
  9193  9192  9193      1
  9194  9192  9195      1
  9195  9192  9196      1
  9196  9193  9194      1
  9197  9193  9197      1
  9198  9193  9198      1
  9199  9194  9199      1
  9200  9199  9200      1
  9201  9199  9202      1
  9202  9199  9203      1
  9203  9200  9201      1
  9204  9200  9204      1
  9205  9200  9205      1
  9206  9201  9206      1
  9207  9206  9207      1
  9208  9206  9209      1
  9209  9206  9210      1
  9210  9207  9208      1
  9211  9207  9211      1
  9212  9207  9212      1
  9213  9208  9213      1
  9214  9213  9214      1
  9215  9213  9216      1
  9216  9213  9217      1
  9217  9214  9215      1
  9218  9214  9218      1
  9219  9214  9219      1
  9220  9215  9220      1
  9221  9220  9221      1
  9222  9220  9223      1
  9223  9220  9224      1
  9224  9221  9222      1
  9225  9221  9225      1
  9226  9221  9226      1
  9227  9222  9227      1
  9228  9227  9228      1
  9229  9227  9230      1
  9230  9227  9231      1
  9231  9228  9229      1
  9232  9228  9232      1
  9233  9228  9233      1
  9234  9229  9234      1
  9235  9234  9235      1
  9236  9234  9237      1
  9237  9234  9238      1
  9238  9235  9236      1
  9239  9235  9239      1
  9240  9235  9240      1
  9241  9236  9241      1
  9242  9241  9242      1
  9243  9241  9244      1
  9244  9241  9245      1
  9245  9242  9243      1
  9246  9242  9246      1
  9247  9242  9247      1
  9248  9243  9248      1
  9249  9248  9249      1
  9250  9248  9251      1
  9251  9248  9252      1
  9252  9249  9250      1
  9253  9249  9253      1
  9254  9249  9254      1
  9255  9250  9255      1
  9256  9255  9256      1
  9257  9255  9258      1
  9258  9255  9259      1
  9259  9256  9257      1
  9260  9256  9260      1
  9261  9256  9261      1
  9262  9257  9262      1
  9263  9262  9263      1
  9264  9262  9265      1
  9265  9262  9266      1
  9266  9263  9264      1
  9267  9263  9267      1
  9268  9263  9268      1
  9269  9264  9269      1
  9270  9269  9270      1
  9271  9269  9272      1
  9272  9269  9273      1
  9273  9270  9271      1
  9274  9270  9274      1
  9275  9270  9275      1
  9276  9271  9276      1
  9277  9276  9277      1
  9278  9276  9279      1
  9279  9276  9280      1
  9280  9277  9278      1
  9281  9277  9281      1
  9282  9277  9282      1
  9283  9278  9283      1
  9284  9283  9284      1
  9285  9283  9286      1
  9286  9283  9287      1
  9287  9284  9285      1
  9288  9284  9288      1
  9289  9284  9289      1
  9290  9285  9290      1
  9291  9290  9291      1
  9292  9290  9293      1
  9293  9290  9294      1
  9294  9291  9292      1
  9295  9291  9295      1
  9296  9291  9296      1
  9297  9292  9297      1
  9298  9297  9298      1
  9299  9297  9300      1
  9300  9297  9301      1
  9301  9298  9299      1
  9302  9298  9302      1
  9303  9298  9303      1
  9304  9299  9304      1
  9305  9304  9305      1
  9306  9304  9307      1
  9307  9304  9308      1
  9308  9305  9306      1
  9309  9305  9309      1
  9310  9305  9310      1
  9311  9306  9311      1
  9312  9311  9312      1
  9313  9311  9314      1
  9314  9311  9315      1
  9315  9312  9313      1
  9316  9312  9316      1
  9317  9312  9317      1
  9318  9313  9318      1
  9319  9318  9319      1
  9320  9318  9321      1
  9321  9318  9322      1
  9322  9319  9320      1
  9323  9319  9323      1
  9324  9319  9324      1
  9325  9320  9325      1
  9326  9325  9326      1
  9327  9325  9328      1
  9328  9325  9329      1
  9329  9326  9327      1
  9330  9326  9330      1
  9331  9326  9331      1
  9332  9327  9332      1
  9333  9332  9333      1
  9334  9332  9335      1
  9335  9332  9336      1
  9336  9333  9334      1
  9337  9333  9337      1
  9338  9333  9338      1
  9339  9334  9339      1
  9340  9339  9340      1
  9341  9339  9342      1
  9342  9339  9343      1
  9343  9340  9341      1
  9344  9340  9344      1
  9345  9340  9345      1
  9346  9341  9346      1
  9347  9346  9347      1
  9348  9346  9349      1
  9349  9346  9350      1
  9350  9347  9348      1
  9351  9347  9351      1
  9352  9347  9352      1
  9353  9348  9353      1
  9354  9353  9354      1
  9355  9353  9356      1
  9356  9353  9357      1
  9357  9354  9355      1
  9358  9354  9358      1
  9359  9354  9359      1
  9360  9355  9360      1
  9361  9360  9361      1
  9362  9360  9363      1
  9363  9360  9364      1
  9364  9361  9362      1
  9365  9361  9365      1
  9366  9361  9366      1
  9367  9362  9367      1
  9368  9367  9368      1
  9369  9367  9370      1
  9370  9367  9371      1
  9371  9368  9369      1
  9372  9368  9372      1
  9373  9368  9373      1
  9374  9369  9374      1
  9375  9374  9375      1
  9376  9374  9377      1
  9377  9374  9378      1
  9378  9375  9376      1
  9379  9375  9379      1
  9380  9375  9380      1
  9381  9376  9381      1
  9382  9381  9382      1
  9383  9381  9384      1
  9384  9381  9385      1
  9385  9382  9383      1
  9386  9382  9386      1
  9387  9382  9387      1
  9388  9383  9388      1
  9389  9388  9389      1
  9390  9388  9391      1
  9391  9388  9392      1
  9392  9389  9390      1
  9393  9389  9393      1
  9394  9389  9394      1
  9395  9390  9395      1
  9396  9395  9396      1
  9397  9395  9398      1
  9398  9395  9399      1
  9399  9396  9397      1
  9400  9396  9400      1
  9401  9396  9401      1
  9402  9397  9402      1
  9403  9402  9403      1
  9404  9402  9405      1
  9405  9402  9406      1
  9406  9403  9404      1
  9407  9403  9407      1
  9408  9403  9408      1
  9409  9404  9409      1
  9410  9409  9410      1
  9411  9409  9412      1
  9412  9409  9413      1
  9413  9410  9411      1
  9414  9410  9414      1
  9415  9410  9415      1
  9416  9411  9416      1
  9417  9416  9417      1
  9418  9416  9419      1
  9419  9416  9420      1
  9420  9417  9418      1
  9421  9417  9421      1
  9422  9417  9422      1
  9423  9418  9423      1
  9424  9423  9424      1
  9425  9423  9426      1
  9426  9423  9427      1
  9427  9424  9425      1
  9428  9424  9428      1
  9429  9424  9429      1
  9430  9425  9430      1
  9431  9430  9431      1
  9432  9430  9433      1
  9433  9430  9434      1
  9434  9431  9432      1
  9435  9431  9435      1
  9436  9431  9436      1
  9437  9432  9437      1
  9438  9437  9438      1
  9439  9437  9440      1
  9440  9437  9441      1
  9441  9438  9439      1
  9442  9438  9442      1
  9443  9438  9443      1
  9444  9439  9444      1
  9445  9444  9445      1
  9446  9444  9447      1
  9447  9444  9448      1
  9448  9445  9446      1
  9449  9445  9449      1
  9450  9445  9450      1
  9451  9446  9451      1
  9452  9451  9452      1
  9453  9451  9454      1
  9454  9451  9455      1
  9455  9452  9453      1
  9456  9452  9456      1
  9457  9452  9457      1
  9458  9453  9458      1
  9459  9458  9459      1
  9460  9458  9461      1
  9461  9458  9462      1
  9462  9459  9460      1
  9463  9459  9463      1
  9464  9459  9464      1
  9465  9460  9465      1
  9466  9465  9466      1
  9467  9465  9468      1
  9468  9465  9469      1
  9469  9466  9467      1
  9470  9466  9470      1
  9471  9466  9471      1
  9472  9467  9472      1
  9473  9472  9473      1
  9474  9472  9475      1
  9475  9472  9476      1
  9476  9473  9474      1
  9477  9473  9477      1
  9478  9473  9478      1
  9479  9474  9479      1
  9480  9479  9480      1
  9481  9479  9482      1
  9482  9479  9483      1
  9483  9480  9481      1
  9484  9480  9484      1
  9485  9480  9485      1
  9486  9481  9486      1
  9487  9486  9487      1
  9488  9486  9489      1
  9489  9486  9490      1
  9490  9487  9488      1
  9491  9487  9491      1
  9492  9487  9492      1
  9493  9488  9493      1
  9494  9493  9494      1
  9495  9493  9496      1
  9496  9493  9497      1
  9497  9494  9495      1
  9498  9494  9498      1
  9499  9494  9499      1
  9500  9495  9500      1
  9501  9500  9501      1
  9502  9500  9503      1
  9503  9500  9504      1
  9504  9501  9502      1
  9505  9501  9505      1
  9506  9501  9506      1
  9507  9502  9507      1
  9508  9507  9508      1
  9509  9507  9510      1
  9510  9507  9511      1
  9511  9508  9509      1
  9512  9508  9512      1
  9513  9508  9513      1
  9514  9509  9514      1
  9515  9514  9515      1
  9516  9514  9517      1
  9517  9514  9518      1
  9518  9515  9516      1
  9519  9515  9519      1
  9520  9515  9520      1
  9521  9516  9521      1
  9522  9521  9522      1
  9523  9521  9524      1
  9524  9521  9525      1
  9525  9522  9523      1
  9526  9522  9526      1
  9527  9522  9527      1
  9528  9523  9528      1
  9529  9528  9529      1
  9530  9528  9531      1
  9531  9528  9532      1
  9532  9529  9530      1
  9533  9529  9533      1
  9534  9529  9534      1
  9535  9530  9535      1
  9536  9535  9536      1
  9537  9535  9538      1
  9538  9535  9539      1
  9539  9536  9537      1
  9540  9536  9540      1
  9541  9536  9541      1
  9542  9537  9542      1
  9543  9542  9543      1
  9544  9542  9545      1
  9545  9542  9546      1
  9546  9543  9544      1
  9547  9543  9547      1
  9548  9543  9548      1
  9549  9544  9549      1
  9550  9549  9550      1
  9551  9549  9552      1
  9552  9549  9553      1
  9553  9550  9551      1
  9554  9550  9554      1
  9555  9550  9555      1
  9556  9551  9556      1
  9557  9556  9557      1
  9558  9556  9559      1
  9559  9556  9560      1
  9560  9557  9558      1
  9561  9557  9561      1
  9562  9557  9562      1
  9563  9558  9563      1
  9564  9563  9564      1
  9565  9563  9566      1
  9566  9563  9567      1
  9567  9564  9565      1
  9568  9564  9568      1
  9569  9564  9569      1
  9570  9565  9570      1
  9571  9570  9571      1
  9572  9570  9573      1
  9573  9570  9574      1
  9574  9571  9572      1
  9575  9571  9575      1
  9576  9571  9576      1
  9577  9572  9577      1
  9578  9577  9578      1
  9579  9577  9580      1
  9580  9577  9581      1
  9581  9578  9579      1
  9582  9578  9582      1
  9583  9578  9583      1
  9584  9579  9584      1
  9585  9584  9585      1
  9586  9584  9587      1
  9587  9584  9588      1
  9588  9585  9586      1
  9589  9585  9589      1
  9590  9585  9590      1
  9591  9586  9591      1
  9592  9591  9592      1
  9593  9591  9594      1
  9594  9591  9595      1
  9595  9592  9593      1
  9596  9592  9596      1
  9597  9592  9597      1
  9598  9593  9598      1
  9599  9598  9599      1
  9600  9598  9601      1
  9601  9598  9602      1
  9602  9599  9600      1
  9603  9599  9603      1
  9604  9599  9604      1
  9605  9600  9605      1
  9606  9605  9606      1
  9607  9605  9608      1
  9608  9605  9609      1
  9609  9606  9607      1
  9610  9606  9610      1
  9611  9606  9611      1
  9612  9607  9612      1
  9613  9612  9613      1
  9614  9612  9615      1
  9615  9612  9616      1
  9616  9613  9614      1
  9617  9613  9617      1
  9618  9613  9618      1
  9619  9614  9619      1
  9620  9619  9620      1
  9621  9619  9622      1
  9622  9619  9623      1
  9623  9620  9621      1
  9624  9620  9624      1
  9625  9620  9625      1
  9626  9621  9626      1
  9627  9626  9627      1
  9628  9626  9629      1
  9629  9626  9630      1
  9630  9627  9628      1
  9631  9627  9631      1
  9632  9627  9632      1
  9633  9628  9633      1
  9634  9633  9634      1
  9635  9633  9636      1
  9636  9633  9637      1
  9637  9634  9635      1
  9638  9634  9638      1
  9639  9634  9639      1
  9640  9635  9640      1
  9641  9640  9641      1
  9642  9640  9643      1
  9643  9640  9644      1
  9644  9641  9642      1
  9645  9641  9645      1
  9646  9641  9646      1
  9647  9642  9647      1
  9648  9647  9648      1
  9649  9647  9650      1
  9650  9647  9651      1
  9651  9648  9649      1
  9652  9648  9652      1
  9653  9648  9653      1
  9654  9649  9654      1
  9655  9654  9655      1
  9656  9654  9657      1
  9657  9654  9658      1
  9658  9655  9656      1
  9659  9655  9659      1
  9660  9655  9660      1
  9661  9656  9661      1
  9662  9661  9662      1
  9663  9661  9664      1
  9664  9661  9665      1
  9665  9662  9663      1
  9666  9662  9666      1
  9667  9662  9667      1
  9668  9663  9668      1
  9669  9668  9669      1
  9670  9668  9671      1
  9671  9668  9672      1
  9672  9669  9670      1
  9673  9669  9673      1
  9674  9669  9674      1
  9675  9670  9675      1
  9676  9675  9676      1
  9677  9675  9678      1
  9678  9675  9679      1
  9679  9676  9677      1
  9680  9676  9680      1
  9681  9676  9681      1
  9682  9677  9682      1
  9683  9682  9683      1
  9684  9682  9685      1
  9685  9682  9686      1
  9686  9683  9684      1
  9687  9683  9687      1
  9688  9683  9688      1
  9689  9684  9689      1
  9690  9689  9690      1
  9691  9689  9692      1
  9692  9689  9693      1
  9693  9690  9691      1
  9694  9690  9694      1
  9695  9690  9695      1
  9696  9691  9696      1
