###
### Created by PolyChef-cpp17 on Wed Apr 16 14:52:29 2025
###

@<TRIPOS>MOLECULE
NO_INFO
7410 7409 1 0 0
SMALL
USER_CHARGES


@<TRIPOS>ATOM
      1 O          -1.1759    0.4686   -0.0062 O.3       0      C_A    0.0000
      2 H          -1.7983   -0.2377    0.0064 H         0      C_A    0.0000
      3 O         201.1759    0.4686   -0.0062 O.3       0      C_A    0.0000
      4 H         201.7983   -0.2377    0.0064 H         0      C_A    0.0000
      5 Si         -0.5693   -0.4817   -1.5744 Si        0      C_A    0.0000
      6 C          -0.0517   -1.5788   -0.1444 C.3       0      C_A    0.0000
      7 C           0.0405   -1.2807   -3.1708 C.3       0      C_A    0.0000
      8 C           1.5312   -1.2842   -3.3062 C.2       0      C_A    0.0000
      9 O           0.0353    1.0437   -1.3349 O.3       0      C_A    0.0000
     10 H          -0.4827   -1.2206    0.7805 H         0      C_A    0.0000
     11 H           1.0242   -1.5766   -0.0393 H         0      C_A    0.0000
     12 H          -0.3796   -2.5962   -0.3078 H         0      C_A    0.0000
     13 H          -0.3222   -2.3013   -3.1823 H         0      C_A    0.0000
     14 H          -0.4001   -0.7647   -4.0145 H         0      C_A    0.0000
     15 H           1.8281   -1.7529   -4.2345 H         0      C_A    0.0000
     16 H           1.9657   -0.2953   -3.2697 H         0      C_A    0.0000
     17 Si          1.3839    1.2769   -1.6011 Si        0      C_A    0.0000
     18 C           1.6535    3.1243   -1.5401 C.3       0      C_A    0.0000
     19 C           1.7156    0.7023   -3.3473 C.3       0      C_A    0.0000
     20 O           2.3355    0.4805   -0.5011 O.3       0      C_A    0.0000
     21 H           2.6713    3.3696   -1.8108 H         0      C_A    0.0000
     22 H           1.4647    3.5033   -0.5450 H         0      C_A    0.0000
     23 H           0.9908    3.6285   -2.2302 H         0      C_A    0.0000
     24 H           1.0530    1.1985   -4.0434 H         0      C_A    0.0000
     25 H           1.5638   -0.3652   -3.4314 H         0      C_A    0.0000
     26 H           2.7339    0.9254   -3.6345 H         0      C_A    0.0000
     27 Si          3.7185    0.6110   -0.6301 Si        0      C_A    0.0000
     28 C           4.1182    2.4333   -0.5376 C.3       0      C_A    0.0000
     29 C           4.1797    0.0045   -2.3355 C.3       0      C_A    0.0000
     30 O           4.4926   -0.2488    0.5579 O.3       0      C_A    0.0000
     31 H           5.1735    2.6005   -0.7040 H         0      C_A    0.0000
     32 H           3.8594    2.8304    0.4345 H         0      C_A    0.0000
     33 H           3.5677    2.9823   -1.2895 H         0      C_A    0.0000
     34 H           3.6294    0.5453   -3.0934 H         0      C_A    0.0000
     35 H           3.9577   -1.0491   -2.4373 H         0      C_A    0.0000
     36 H           5.2356    0.1494   -2.5185 H         0      C_A    0.0000
     37 Si          5.8090   -0.6425    0.3161 Si        0      C_A    0.0000
     38 C           5.9818   -0.9123   -1.5242 C.3       0      C_A    0.0000
     39 C           6.0655   -2.2854    1.1672 C.3       0      C_A    0.0000
     40 O           6.8667    0.5082    0.8703 O.3       0      C_A    0.0000
     41 H           6.9668   -1.2895   -1.7628 H         0      C_A    0.0000
     42 H           5.8331    0.0153   -2.0600 H         0      C_A    0.0000
     43 H           5.2525   -1.6305   -1.8736 H         0      C_A    0.0000
     44 H           5.3365   -3.0082    0.8267 H         0      C_A    0.0000
     45 H           5.9668   -2.1779    2.2387 H         0      C_A    0.0000
     46 H           7.0513   -2.6752    0.9532 H         0      C_A    0.0000
     47 Si          8.2178    0.3439    0.5641 Si        0      C_A    0.0000
     48 C           8.3929    0.4983   -1.2892 C.3       0      C_A    0.0000
     49 C           8.6915   -1.3976    1.0458 C.3       0      C_A    0.0000
     50 O           9.1322    1.4727    1.3637 O.3       0      C_A    0.0000
     51 H           9.4133    0.3077   -1.5924 H         0      C_A    0.0000
     52 H           8.1207    1.4929   -1.6152 H         0      C_A    0.0000
     53 H           7.7535   -0.2142   -1.7925 H         0      C_A    0.0000
     54 H           8.0531   -2.1164    0.5503 H         0      C_A    0.0000
     55 H           8.5976   -1.5353    2.1143 H         0      C_A    0.0000
     56 H           9.7146   -1.6056    0.7640 H         0      C_A    0.0000
     57 Si         10.5196    1.3369    1.3074 Si        0      C_A    0.0000
     58 C          11.0882    0.9839    3.0592 C.3       0      C_A    0.0000
     59 C          10.9007   -0.1818    0.2552 C.3       0      C_A    0.0000
     60 C          12.3652   -0.4241    0.0631 C.2       0      C_A    0.0000
     61 O          11.2654    2.7137    0.7616 O.3       0      C_A    0.0000
     62 H          10.7820    1.7813    3.7225 H         0      C_A    0.0000
     63 H          12.1659    0.9082    3.0965 H         0      C_A    0.0000
     64 H          10.6652    0.0551    3.4163 H         0      C_A    0.0000
     65 H          10.4580   -1.0383    0.7490 H         0      C_A    0.0000
     66 H          10.4205   -0.0727   -0.7091 H         0      C_A    0.0000
     67 H          12.5291   -1.3040   -0.5438 H         0      C_A    0.0000
     68 H          12.8790    0.4079   -0.3971 H         0      C_A    0.0000
     69 Si         12.4450    2.5885    0.0289 Si        0      C_A    0.0000
     70 C          12.0129    1.5998   -1.5048 C.3       0      C_A    0.0000
     71 C          12.9602    4.3182   -0.5204 C.3       0      C_A    0.0000
     72 C          14.2495    4.3450   -1.2804 C.2       0      C_A    0.0000
     73 O          13.6290    1.7914    0.8730 O.3       0      C_A    0.0000
     74 H          11.5986    0.6394   -1.2295 H         0      C_A    0.0000
     75 H          12.8969    1.4278   -2.1026 H         0      C_A    0.0000
     76 H          11.2877    2.1296   -2.1069 H         0      C_A    0.0000
     77 H          12.1677    4.7096   -1.1465 H         0      C_A    0.0000
     78 H          13.0381    4.9566    0.3506 H         0      C_A    0.0000
     79 H          14.4983    5.3561   -1.5724 H         0      C_A    0.0000
     80 H          15.0815    3.9364   -0.7246 H         0      C_A    0.0000
     81 Si         14.8868    1.6508    0.2879 Si        0      C_A    0.0000
     82 C          15.8065    3.2554    0.5495 C.3       0      C_A    0.0000
     83 C          14.6264    1.4271   -1.5482 C.3       0      C_A    0.0000
     84 O          15.6932    0.3646    0.9552 O.3       0      C_A    0.0000
     85 H          16.7664    3.2295    0.0521 H         0      C_A    0.0000
     86 H          15.9736    3.4303    1.6036 H         0      C_A    0.0000
     87 H          15.2424    4.0869    0.1495 H         0      C_A    0.0000
     88 H          14.0582    2.2526   -1.9552 H         0      C_A    0.0000
     89 H          14.0886    0.5101   -1.7469 H         0      C_A    0.0000
     90 H          15.5753    1.3844   -2.0649 H         0      C_A    0.0000
     91 Si         17.0630    0.5069    1.1780 Si        0      C_A    0.0000
     92 C          17.4206   -0.1455    2.8914 C.3       0      C_A    0.0000
     93 C          17.4435    2.3356    1.1654 C.3       0      C_A    0.0000
     94 O          17.9241   -0.3078    0.0184 O.3       0      C_A    0.0000
     95 H          18.4603    0.0059    3.1471 H         0      C_A    0.0000
     96 H          17.2065   -1.2041    2.9474 H         0      C_A    0.0000
     97 H          16.8150    0.3659    3.6273 H         0      C_A    0.0000
     98 H          16.8380    2.8553    1.8955 H         0      C_A    0.0000
     99 H          17.2431    2.7589    0.1905 H         0      C_A    0.0000
    100 H          18.4835    2.5098    1.4052 H         0      C_A    0.0000
    101 Si         19.2947   -0.4665    0.2247 Si        0      C_A    0.0000
    102 C          19.7479   -2.1894   -0.3372 C.3       0      C_A    0.0000
    103 C          19.5981   -0.3607    2.0647 C.3       0      C_A    0.0000
    104 O          20.1414    0.6929   -0.6053 O.3       0      C_A    0.0000
    105 H          20.7899   -2.3945   -0.1335 H         0      C_A    0.0000
    106 H          19.5803   -2.2990   -1.3999 H         0      C_A    0.0000
    107 H          19.1517   -2.9278    0.1816 H         0      C_A    0.0000
    108 H          19.0015   -1.0931    2.5915 H         0      C_A    0.0000
    109 H          19.3412    0.6219    2.4365 H         0      C_A    0.0000
    110 H          20.6388   -0.5490    2.2905 H         0      C_A    0.0000
    111 Si         21.3981    1.0490   -0.1152 Si        0      C_A    0.0000
    112 C          21.3109    0.9779    1.7493 C.3       0      C_A    0.0000
    113 C          21.7085    2.8229   -0.6115 C.3       0      C_A    0.0000
    114 O          22.5613    0.0307   -0.7151 O.3       0      C_A    0.0000
    115 H          22.2404    1.3150    2.1871 H         0      C_A    0.0000
    116 H          21.1243   -0.0338    2.0828 H         0      C_A    0.0000
    117 H          20.5158    1.6121    2.1175 H         0      C_A    0.0000
    118 H          20.9148    3.4632   -0.2512 H         0      C_A    0.0000
    119 H          21.7594    2.9131   -1.6880 H         0      C_A    0.0000
    120 H          22.6418    3.1769   -0.1955 H         0      C_A    0.0000
    121 Si         23.5490   -0.4109    0.1657 Si        0      C_A    0.0000
    122 C          22.8064   -0.3145    1.8849 C.3       0      C_A    0.0000
    123 C          23.8862   -2.2263   -0.2211 C.3       0      C_A    0.0000
    124 C          24.9704   -2.8254    0.6192 C.2       0      C_A    0.0000
    125 O          24.9112    0.5331    0.1090 O.3       0      C_A    0.0000
    126 H          22.4876    0.6960    2.1014 H         0      C_A    0.0000
    127 H          23.5371   -0.6048    2.6268 H         0      C_A    0.0000
    128 H          21.9519   -0.9721    1.9674 H         0      C_A    0.0000
    129 H          22.9641   -2.7702   -0.0564 H         0      C_A    0.0000
    130 H          24.1430   -2.3222   -1.2686 H         0      C_A    0.0000
    131 H          25.1231   -3.8641    0.3599 H         0      C_A    0.0000
    132 H          25.9156   -2.3091    0.5287 H         0      C_A    0.0000
    133 Si         26.1292   -0.0285    0.4899 Si        0      C_A    0.0000
    134 C          25.8527   -0.7963    2.1783 C.3       0      C_A    0.0000
    135 C          26.5196   -1.4186   -0.7242 C.3       0      C_A    0.0000
    136 C          27.8350   -2.0850   -0.4673 C.2       0      C_A    0.0000
    137 O          27.3372    1.1023    0.5989 O.3       0      C_A    0.0000
    138 H          25.5097   -0.0487    2.8805 H         0      C_A    0.0000
    139 H          26.7744   -1.2167    2.5555 H         0      C_A    0.0000
    140 H          25.1131   -1.5831    2.1217 H         0      C_A    0.0000
    141 H          25.7258   -2.1513   -0.6451 H         0      C_A    0.0000
    142 H          26.5033   -1.0223   -1.7316 H         0      C_A    0.0000
    143 H          28.0099   -2.8726   -1.1874 H         0      C_A    0.0000
    144 H          28.6727   -1.4028   -0.4983 H         0      C_A    0.0000
    145 Si         28.5443    0.8549   -0.0536 Si        0      C_A    0.0000
    146 C          28.7847    2.2109   -1.3155 C.3       0      C_A    0.0000
    147 C          28.3617   -0.7619   -0.9710 C.3       0      C_A    0.0000
    148 O          29.7910    0.8041    1.0387 O.3       0      C_A    0.0000
    149 H          29.6740    2.0303   -1.9037 H         0      C_A    0.0000
    150 H          28.8879    3.1705   -0.8275 H         0      C_A    0.0000
    151 H          27.9396    2.2583   -1.9889 H         0      C_A    0.0000
    152 H          27.5152   -0.7245   -1.6431 H         0      C_A    0.0000
    153 H          28.2123   -1.5779   -0.2771 H         0      C_A    0.0000
    154 H          29.2471   -0.9699   -1.5560 H         0      C_A    0.0000
    155 Si         30.9568    0.1397    0.6570 Si        0      C_A    0.0000
    156 C          30.7271   -1.6558    1.1468 C.3       0      C_A    0.0000
    157 C          31.0675    0.2195   -1.2246 C.3       0      C_A    0.0000
    158 C          32.3055   -0.4139   -1.7782 C.2       0      C_A    0.0000
    159 O          32.3022    0.7418    1.4167 O.3       0      C_A    0.0000
    160 H          30.5402   -1.7355    2.2090 H         0      C_A    0.0000
    161 H          31.6167   -2.2250    0.9165 H         0      C_A    0.0000
    162 H          29.8924   -2.0912    0.6149 H         0      C_A    0.0000
    163 H          30.1972   -0.2877   -1.6229 H         0      C_A    0.0000
    164 H          31.0175    1.2548   -1.5375 H         0      C_A    0.0000
    165 H          32.3196   -0.3429   -2.8573 H         0      C_A    0.0000
    166 H          33.2167    0.0237   -1.3960 H         0      C_A    0.0000
    167 Si         33.4941    0.8244    0.6980 Si        0      C_A    0.0000
    168 C          33.6205    2.5620    0.0242 C.3       0      C_A    0.0000
    169 C          33.3553   -0.3477   -0.7498 C.3       0      C_A    0.0000
    170 O          34.7825    0.4479    1.6718 O.3       0      C_A    0.0000
    171 H          34.4944    2.6640   -0.6044 H         0      C_A    0.0000
    172 H          33.6957    3.2781    0.8311 H         0      C_A    0.0000
    173 H          32.7490    2.8044   -0.5688 H         0      C_A    0.0000
    174 H          32.4830   -0.1150   -1.3454 H         0      C_A    0.0000
    175 H          33.2721   -1.3694   -0.4051 H         0      C_A    0.0000
    176 H          34.2268   -0.2725   -1.3855 H         0      C_A    0.0000
    177 Si         35.9270   -0.0631    1.0592 Si        0      C_A    0.0000
    178 C          35.8614   -1.9237    1.2839 C.3       0      C_A    0.0000
    179 C          35.7971    0.3046   -0.7866 C.3       0      C_A    0.0000
    180 C          36.9898   -0.1449   -1.5713 C.2       0      C_A    0.0000
    181 O          37.3208    0.5177    1.7445 O.3       0      C_A    0.0000
    182 H          35.8134   -2.1748    2.3347 H         0      C_A    0.0000
    183 H          36.7458   -2.3841    0.8663 H         0      C_A    0.0000
    184 H          34.9925   -2.3360    0.7895 H         0      C_A    0.0000
    185 H          34.9137   -0.2011   -1.1571 H         0      C_A    0.0000
    186 H          35.6504    1.3684   -0.9251 H         0      C_A    0.0000
    187 H          36.8650    0.0873   -2.6202 H         0      C_A    0.0000
    188 H          37.9157    0.2976   -1.2322 H         0      C_A    0.0000
    189 Si         38.4499    0.6641    0.9398 Si        0      C_A    0.0000
    190 C          38.1457   -0.3732   -0.5925 C.3       0      C_A    0.0000
    191 C          38.5404    2.4723    0.4094 C.3       0      C_A    0.0000
    192 C          39.7415    2.7914   -0.4248 C.2       0      C_A    0.0000
    193 O          39.8306    0.1334    1.6894 O.3       0      C_A    0.0000
    194 H          37.9688   -1.4047   -0.3201 H         0      C_A    0.0000
    195 H          39.0059   -0.3390   -1.2464 H         0      C_A    0.0000
    196 H          37.2856   -0.0062   -1.1355 H         0      C_A    0.0000
    197 H          37.6432    2.6898   -0.1572 H         0      C_A    0.0000
    198 H          38.5332    3.0997    1.2918 H         0      C_A    0.0000
    199 H          39.7453    3.8366   -0.7027 H         0      C_A    0.0000
    200 H          40.6763    2.5668    0.0689 H         0      C_A    0.0000
    201 Si         41.0033    0.8700    1.5284 Si        0      C_A    0.0000
    202 C          41.3792    1.6859    3.1661 C.3       0      C_A    0.0000
    203 C          40.6508    2.2147    0.2807 C.3       0      C_A    0.0000
    204 O          42.2415   -0.1166    1.0350 O.3       0      C_A    0.0000
    205 H          42.2431    2.3308    3.0807 H         0      C_A    0.0000
    206 H          41.5832    0.9416    3.9237 H         0      C_A    0.0000
    207 H          40.5415    2.2869    3.4930 H         0      C_A    0.0000
    208 H          39.8106    2.8174    0.5980 H         0      C_A    0.0000
    209 H          40.4197    1.7862   -0.6850 H         0      C_A    0.0000
    210 H          41.5080    2.8645    0.1689 H         0      C_A    0.0000
    211 Si         43.5364    0.2310    1.4205 Si        0      C_A    0.0000
    212 C          44.0422   -0.9333    2.7909 C.3       0      C_A    0.0000
    213 C          43.4636    1.9583    2.1279 C.3       0      C_A    0.0000
    214 O          44.5681    0.1404    0.1255 O.3       0      C_A    0.0000
    215 H          45.0147   -0.6641    3.1797 H         0      C_A    0.0000
    216 H          44.0904   -1.9506    2.4270 H         0      C_A    0.0000
    217 H          43.3314   -0.8941    3.6052 H         0      C_A    0.0000
    218 H          42.7509    2.0071    2.9399 H         0      C_A    0.0000
    219 H          43.1662    2.6680    1.3679 H         0      C_A    0.0000
    220 H          44.4308    2.2541    2.5105 H         0      C_A    0.0000
    221 Si         45.8750   -0.2826    0.3696 Si        0      C_A    0.0000
    222 C          46.3341   -1.4858   -0.9834 C.3       0      C_A    0.0000
    223 C          45.8673   -1.2115    1.9902 C.3       0      C_A    0.0000
    224 O          46.9040    1.0170    0.4113 O.3       0      C_A    0.0000
    225 H          47.3157   -1.9029   -0.8049 H         0      C_A    0.0000
    226 H          46.3439   -0.9909   -1.9450 H         0      C_A    0.0000
    227 H          45.6244   -2.3008   -1.0248 H         0      C_A    0.0000
    228 H          45.1560   -2.0256    1.9588 H         0      C_A    0.0000
    229 H          45.5982   -0.5528    2.8046 H         0      C_A    0.0000
    230 H          46.8446   -1.6261    2.1960 H         0      C_A    0.0000
    231 Si         48.2465    0.7873    0.1089 Si        0      C_A    0.0000
    232 C          48.3503   -0.9708   -0.5353 C.3       0      C_A    0.0000
    233 C          48.7203    1.9511   -1.2981 C.3       0      C_A    0.0000
    234 C          50.1594    1.8516   -1.6976 C.2       0      C_A    0.0000
    235 O          49.2260    0.9369    1.4386 O.3       0      C_A    0.0000
    236 H          47.9728   -1.6653    0.2026 H         0      C_A    0.0000
    237 H          49.3768   -1.2319   -0.7513 H         0      C_A    0.0000
    238 H          47.7696   -1.0787   -1.4411 H         0      C_A    0.0000
    239 H          48.0953    1.7048   -2.1478 H         0      C_A    0.0000
    240 H          48.4935    2.9687   -1.0060 H         0      C_A    0.0000
    241 H          50.3784    2.5358   -2.5059 H         0      C_A    0.0000
    242 H          50.8431    2.0538   -0.8854 H         0      C_A    0.0000
    243 Si         50.5938    1.1239    1.2428 Si        0      C_A    0.0000
    244 C          50.8339    1.3840   -0.5988 C.3       0      C_A    0.0000
    245 C          51.0822    2.7188    2.1239 C.3       0      C_A    0.0000
    246 C          52.5454    3.0234    2.0418 C.2       0      C_A    0.0000
    247 O          51.4843   -0.1887    1.7263 O.3       0      C_A    0.0000
    248 H          50.4539    0.5359   -1.1517 H         0      C_A    0.0000
    249 H          51.8843    1.4945   -0.8289 H         0      C_A    0.0000
    250 H          50.3139    2.2730   -0.9281 H         0      C_A    0.0000
    251 H          50.5225    3.5263    1.6678 H         0      C_A    0.0000
    252 H          50.7817    2.6547    3.1621 H         0      C_A    0.0000
    253 H          52.7720    3.9453    2.5597 H         0      C_A    0.0000
    254 H          53.1682    2.2407    2.4512 H         0      C_A    0.0000
    255 Si         52.7929    0.0159    2.1617 Si        0      C_A    0.0000
    256 C          53.2448   -1.4213    3.2661 C.3       0      C_A    0.0000
    257 C          52.7989    1.5675    3.2017 C.3       0      C_A    0.0000
    258 O          53.8195    0.1411    0.8655 O.3       0      C_A    0.0000
    259 H          54.2285   -1.2794    3.6921 H         0      C_A    0.0000
    260 H          53.2465   -2.3459    2.7051 H         0      C_A    0.0000
    261 H          52.5365   -1.5146    4.0781 H         0      C_A    0.0000
    262 H          52.0891    1.4842    4.0135 H         0      C_A    0.0000
    263 H          52.5344    2.4279    2.6023 H         0      C_A    0.0000
    264 H          53.7786    1.7368    3.6272 H         0      C_A    0.0000
    265 Si         55.0869    0.6773    1.0954 Si        0      C_A    0.0000
    266 C          54.8898    2.5414    1.0450 C.3       0      C_A    0.0000
    267 C          55.6007    0.1939    2.8450 C.3       0      C_A    0.0000
    268 C          56.9735    0.6611    3.2157 C.2       0      C_A    0.0000
    269 O          56.1845    0.2160   -0.0588 O.3       0      C_A    0.0000
    270 H          54.4812    2.8515    0.0929 H         0      C_A    0.0000
    271 H          55.8481    3.0244    1.1750 H         0      C_A    0.0000
    272 H          54.2266    2.8750    1.8313 H         0      C_A    0.0000
    273 H          54.8790    0.6272    3.5268 H         0      C_A    0.0000
    274 H          55.5435   -0.8827    2.9449 H         0      C_A    0.0000
    275 H          57.2183    0.3605    4.2253 H         0      C_A    0.0000
    276 H          57.7438    0.2913    2.5538 H         0      C_A    0.0000
    277 Si         57.4513   -0.1972    0.3516 Si        0      C_A    0.0000
    278 C          57.2068   -1.1400    1.9541 C.3       0      C_A    0.0000
    279 C          58.1021   -1.4070   -0.9414 C.3       0      C_A    0.0000
    280 C          59.4867   -1.8990   -0.6565 C.2       0      C_A    0.0000
    281 O          58.4729    1.0803    0.6237 O.3       0      C_A    0.0000
    282 H          56.7230   -0.5127    2.6902 H         0      C_A    0.0000
    283 H          58.1604   -1.4560    2.3535 H         0      C_A    0.0000
    284 H          56.5948   -2.0162    1.7901 H         0      C_A    0.0000
    285 H          57.4218   -2.2495   -0.9694 H         0      C_A    0.0000
    286 H          58.0780   -0.9313   -1.9137 H         0      C_A    0.0000
    287 H          59.8113   -2.5883   -1.4241 H         0      C_A    0.0000
    288 H          60.2155   -1.1044   -0.5820 H         0      C_A    0.0000
    289 Si         59.6588    0.8504    1.3201 Si        0      C_A    0.0000
    290 C          59.7222   -0.9712    1.7282 C.3       0      C_A    0.0000
    291 C          59.5557    1.7988    2.9261 C.3       0      C_A    0.0000
    292 O          60.9628    1.3221    0.4107 O.3       0      C_A    0.0000
    293 H          60.5899   -1.1959    2.3332 H         0      C_A    0.0000
    294 H          59.7753   -1.5618    0.8238 H         0      C_A    0.0000
    295 H          58.8409   -1.2684    2.2802 H         0      C_A    0.0000
    296 H          58.6738    1.5108    3.4821 H         0      C_A    0.0000
    297 H          59.5093    2.8626    2.7370 H         0      C_A    0.0000
    298 H          60.4219    1.5996    3.5421 H         0      C_A    0.0000
    299 Si         62.1220    1.6969    1.0905 Si        0      C_A    0.0000
    300 C          61.7895    1.4902    2.9169 C.3       0      C_A    0.0000
    301 C          62.4022    3.5133    0.7565 C.3       0      C_A    0.0000
    302 O          63.4071    0.7752    0.5918 O.3       0      C_A    0.0000
    303 H          62.6330    1.8355    3.4989 H         0      C_A    0.0000
    304 H          61.6135    0.4503    3.1559 H         0      C_A    0.0000
    305 H          60.9200    2.0616    3.2125 H         0      C_A    0.0000
    306 H          61.5348    4.0914    1.0448 H         0      C_A    0.0000
    307 H          62.5921    3.6816   -0.2948 H         0      C_A    0.0000
    308 H          63.2513    3.8772    1.3186 H         0      C_A    0.0000
    309 Si         64.5955    0.8794    1.3152 Si        0      C_A    0.0000
    310 C          64.5819   -0.4687    2.6081 C.3       0      C_A    0.0000
    311 C          64.5692    2.5257    2.1974 C.3       0      C_A    0.0000
    312 O          65.9015    0.7461    0.3022 O.3       0      C_A    0.0000
    313 H          65.4502   -0.3913    3.2480 H         0      C_A    0.0000
    314 H          64.5891   -1.4439    2.1404 H         0      C_A    0.0000
    315 H          63.6989   -0.3926    3.2280 H         0      C_A    0.0000
    316 H          63.6862    2.6119    2.8160 H         0      C_A    0.0000
    317 H          64.5688    3.3390    1.4846 H         0      C_A    0.0000
    318 H          65.4374    2.6307    2.8336 H         0      C_A    0.0000
    319 Si         67.1563    0.5716    0.8864 Si        0      C_A    0.0000
    320 C          66.9104    0.7636    2.7355 C.3       0      C_A    0.0000
    321 C          67.6974   -1.2047    0.5531 C.3       0      C_A    0.0000
    322 C          69.0607   -1.5238    1.0823 C.2       0      C_A    0.0000
    323 O          68.2558    1.6981    0.3651 O.3       0      C_A    0.0000
    324 H          66.4858    1.7325    2.9604 H         0      C_A    0.0000
    325 H          67.8569    0.6813    3.2511 H         0      C_A    0.0000
    326 H          66.2455   -0.0014    3.1121 H         0      C_A    0.0000
    327 H          66.9705   -1.8585    1.0195 H         0      C_A    0.0000
    328 H          67.6691   -1.3880   -0.5136 H         0      C_A    0.0000
    329 H          69.3218   -2.5510    0.8670 H         0      C_A    0.0000
    330 H          69.8347   -0.8845    0.6819 H         0      C_A    0.0000
    331 Si         69.5572    1.6411    0.8623 Si        0      C_A    0.0000
    332 C          69.6543    2.9123    2.2374 C.3       0      C_A    0.0000
    333 C          69.7991   -0.0652    1.6296 C.3       0      C_A    0.0000
    334 C          71.1792   -0.2906    2.1634 C.2       0      C_A    0.0000
    335 O          70.6893    2.0041   -0.2937 O.3       0      C_A    0.0000
    336 H          69.4032    3.8945    1.8609 H         0      C_A    0.0000
    337 H          70.6556    2.9516    2.6429 H         0      C_A    0.0000
    338 H          68.9691    2.6621    3.0356 H         0      C_A    0.0000
    339 H          69.0830   -0.1630    2.4364 H         0      C_A    0.0000
    340 H          69.5674   -0.8210    0.8897 H         0      C_A    0.0000
    341 H          71.2647   -1.2797    2.5922 H         0      C_A    0.0000
    342 H          71.9506   -0.1757    1.4153 H         0      C_A    0.0000
    343 Si         71.8986    1.3101   -0.2852 Si        0      C_A    0.0000
    344 C          72.5958    1.3825   -2.0167 C.3       0      C_A    0.0000
    345 C          71.5148   -0.4751    0.1085 C.3       0      C_A    0.0000
    346 O          72.9374    1.9741    0.8236 O.3       0      C_A    0.0000
    347 H          73.5024    0.7973   -2.0868 H         0      C_A    0.0000
    348 H          72.8267    2.4028   -2.2911 H         0      C_A    0.0000
    349 H          71.8846    0.9885   -2.7300 H         0      C_A    0.0000
    350 H          70.8000   -0.8753   -0.5977 H         0      C_A    0.0000
    351 H          71.1001   -0.5642    1.1033 H         0      C_A    0.0000
    352 H          72.4114   -1.0774    0.0579 H         0      C_A    0.0000
    353 Si         74.3007    1.7275    0.6593 Si        0      C_A    0.0000
    354 C          75.0522    3.2469   -0.1254 C.3       0      C_A    0.0000
    355 C          74.4703    0.3110   -0.5465 C.3       0      C_A    0.0000
    356 O          75.0043    1.3785    2.1198 O.3       0      C_A    0.0000
    357 H          76.0991    3.0849   -0.3428 H         0      C_A    0.0000
    358 H          74.9695    4.0975    0.5375 H         0      C_A    0.0000
    359 H          74.5487    3.4849   -1.0525 H         0      C_A    0.0000
    360 H          73.9648    0.5392   -1.4751 H         0      C_A    0.0000
    361 H          74.0400   -0.5919   -0.1352 H         0      C_A    0.0000
    362 H          75.5118    0.1220   -0.7678 H         0      C_A    0.0000
    363 Si         76.3841    1.1731    2.1389 Si        0      C_A    0.0000
    364 C          76.6421   -0.6841    2.1664 C.3       0      C_A    0.0000
    365 C          77.0803    1.8329    0.5145 C.3       0      C_A    0.0000
    366 C          78.5699    1.7251    0.4147 C.2       0      C_A    0.0000
    367 O          77.1017    1.8408    3.4764 O.3       0      C_A    0.0000
    368 H          76.1519   -1.1199    3.0263 H         0      C_A    0.0000
    369 H          77.6962   -0.9163    2.2245 H         0      C_A    0.0000
    370 H          76.2385   -1.1374    1.2715 H         0      C_A    0.0000
    371 H          76.6259    1.2648   -0.2882 H         0      C_A    0.0000
    372 H          76.7818    2.8669    0.3966 H         0      C_A    0.0000
    373 H          78.9172    2.1144   -0.5326 H         0      C_A    0.0000
    374 H          79.0898    2.2440    1.2075 H         0      C_A    0.0000
    375 Si         78.4931    1.8269    3.5647 Si        0      C_A    0.0000
    376 C          78.9125    0.9659    5.1769 C.3       0      C_A    0.0000
    377 C          79.1427    0.7611    2.1501 C.3       0      C_A    0.0000
    378 C          80.6367    0.6962    2.0876 C.2       0      C_A    0.0000
    379 O          79.1382    3.3545    3.5812 O.3       0      C_A    0.0000
    380 H          78.4550    1.4822    6.0098 H         0      C_A    0.0000
    381 H          79.9824    0.9570    5.3310 H         0      C_A    0.0000
    382 H          78.5576   -0.0555    5.1659 H         0      C_A    0.0000
    383 H          78.7465   -0.2376    2.2876 H         0      C_A    0.0000
    384 H          78.7558    1.1432    1.2138 H         0      C_A    0.0000
    385 H          80.9567    0.0739    1.2630 H         0      C_A    0.0000
    386 H          81.1025    1.6659    1.9833 H         0      C_A    0.0000
    387 Si         80.1198    3.6750    2.6444 Si        0      C_A    0.0000
    388 C          79.4414    3.1657    0.9720 C.3       0      C_A    0.0000
    389 C          80.3165    5.5512    2.6452 C.3       0      C_A    0.0000
    390 C          81.3825    6.0412    1.7157 C.2       0      C_A    0.0000
    391 O          81.5421    2.8689    2.9217 O.3       0      C_A    0.0000
    392 H          79.2013    2.1112    0.9681 H         0      C_A    0.0000
    393 H          80.1735    3.3486    0.1979 H         0      C_A    0.0000
    394 H          78.5462    3.7253    0.7384 H         0      C_A    0.0000
    395 H          79.3643    5.9777    2.3541 H         0      C_A    0.0000
    396 H          80.5320    5.8831    3.6530 H         0      C_A    0.0000
    397 H          81.4537    7.1197    1.7527 H         0      C_A    0.0000
    398 H          82.3581    5.6278    1.9289 H         0      C_A    0.0000
    399 Si         82.6416    3.1574    2.1142 Si        0      C_A    0.0000
    400 C          81.9847    4.1365    0.6560 C.3       0      C_A    0.0000
    401 C          83.7917    4.2824    3.0993 C.3       0      C_A    0.0000
    402 C          85.0505    4.6361    2.3708 C.2       0      C_A    0.0000
    403 O          83.3893    1.7868    1.5554 O.3       0      C_A    0.0000
    404 H          81.2293    3.5685    0.1305 H         0      C_A    0.0000
    405 H          82.7835    4.3595   -0.0374 H         0      C_A    0.0000
    406 H          81.5480    5.0679    0.9892 H         0      C_A    0.0000
    407 H          83.2434    5.1884    3.3268 H         0      C_A    0.0000
    408 H          84.0375    3.8014    4.0377 H         0      C_A    0.0000
    409 H          85.6723    5.2814    2.9763 H         0      C_A    0.0000
    410 H          85.6341    3.7733    2.0826 H         0      C_A    0.0000
    411 Si         84.5357    1.3376    2.2094 Si        0      C_A    0.0000
    412 C          84.1733   -0.3765    2.8573 C.3       0      C_A    0.0000
    413 C          84.8187    2.4609    3.6748 C.3       0      C_A    0.0000
    414 O          85.8304    1.3416    1.1732 O.3       0      C_A    0.0000
    415 H          85.0064   -0.7481    3.4379 H         0      C_A    0.0000
    416 H          83.9948   -1.0619    2.0400 H         0      C_A    0.0000
    417 H          83.2981   -0.3659    3.4927 H         0      C_A    0.0000
    418 H          83.9457    2.4810    4.3129 H         0      C_A    0.0000
    419 H          85.0258    3.4701    3.3457 H         0      C_A    0.0000
    420 H          85.6578    2.1154    4.2629 H         0      C_A    0.0000
    421 Si         87.0267    1.8895    1.6371 Si        0      C_A    0.0000
    422 C          86.8680    2.0907    3.4873 C.3       0      C_A    0.0000
    423 C          87.1908    3.5907    0.8832 C.3       0      C_A    0.0000
    424 O          88.3040    0.9125    1.2326 O.3       0      C_A    0.0000
    425 H          87.7428    2.5797    3.8935 H         0      C_A    0.0000
    426 H          86.7627    1.1270    3.9668 H         0      C_A    0.0000
    427 H          86.0024    2.6914    3.7319 H         0      C_A    0.0000
    428 H          86.3263    4.1964    1.1191 H         0      C_A    0.0000
    429 H          87.2783    3.5229   -0.1926 H         0      C_A    0.0000
    430 H          88.0685    4.0935    1.2655 H         0      C_A    0.0000
    431 Si         89.4275    0.9437    2.0592 Si        0      C_A    0.0000
    432 C          89.0273    2.1351    3.4510 C.3       0      C_A    0.0000
    433 C          89.6322   -0.7762    2.8067 C.3       0      C_A    0.0000
    434 C          90.8381   -0.9074    3.6837 C.2       0      C_A    0.0000
    435 O          90.7811    1.4750    1.2622 O.3       0      C_A    0.0000
    436 H          88.7850    3.1111    3.0535 H         0      C_A    0.0000
    437 H          89.8767    2.2404    4.1115 H         0      C_A    0.0000
    438 H          88.1853    1.7773    4.0274 H         0      C_A    0.0000
    439 H          88.7425   -0.9856    3.3880 H         0      C_A    0.0000
    440 H          89.6828   -1.5047    2.0074 H         0      C_A    0.0000
    441 H          90.9085   -1.9084    4.0869 H         0      C_A    0.0000
    442 H          91.7636   -0.6794    3.1743 H         0      C_A    0.0000
    443 Si         92.0289    1.0263    1.6929 Si        0      C_A    0.0000
    444 C          92.2275   -0.7315    1.0931 C.3       0      C_A    0.0000
    445 C          91.9982    0.9993    3.5604 C.3       0      C_A    0.0000
    446 O          93.2289    2.0128    1.1125 O.3       0      C_A    0.0000
    447 H          93.1513   -1.1571    1.4605 H         0      C_A    0.0000
    448 H          92.2431   -0.7649    0.0122 H         0      C_A    0.0000
    449 H          91.4104   -1.3476    1.4431 H         0      C_A    0.0000
    450 H          91.1803    0.3890    3.9186 H         0      C_A    0.0000
    451 H          91.8768    1.9996    3.9531 H         0      C_A    0.0000
    452 H          92.9198    0.5896    3.9504 H         0      C_A    0.0000
    453 Si         94.5068    1.8601    1.6510 Si        0      C_A    0.0000
    454 C          94.4696    0.3569    2.7592 C.3       0      C_A    0.0000
    455 C          94.8453    3.3556    2.7177 C.3       0      C_A    0.0000
    456 O          95.6285    1.7028    0.4398 O.3       0      C_A    0.0000
    457 H          95.4186    0.2309    3.2620 H         0      C_A    0.0000
    458 H          94.2683   -0.5356    2.1825 H         0      C_A    0.0000
    459 H          93.7003    0.4586    3.5127 H         0      C_A    0.0000
    460 H          94.0773    3.4674    3.4710 H         0      C_A    0.0000
    461 H          94.8685    4.2542    2.1162 H         0      C_A    0.0000
    462 H          95.7979    3.2572    3.2201 H         0      C_A    0.0000
    463 Si         96.8239    1.0525    0.7476 Si        0      C_A    0.0000
    464 C          96.4051   -0.2410    2.0391 C.3       0      C_A    0.0000
    465 C          97.4008    0.1553   -0.8083 C.3       0      C_A    0.0000
    466 C          98.7099   -0.5508   -0.6407 C.2       0      C_A    0.0000
    467 O          97.9628    2.0875    1.3653 O.3       0      C_A    0.0000
    468 H          95.9575    0.2240    2.9068 H         0      C_A    0.0000
    469 H          97.2996   -0.7585    2.3565 H         0      C_A    0.0000
    470 H          95.7110   -0.9671    1.6388 H         0      C_A    0.0000
    471 H          96.6361   -0.5659   -1.0697 H         0      C_A    0.0000
    472 H          97.4733    0.8679   -1.6203 H         0      C_A    0.0000
    473 H          98.9942   -1.0486   -1.5578 H         0      C_A    0.0000
    474 H          99.5154    0.1069   -0.3463 H         0      C_A    0.0000
    475 Si         99.1534    1.5539    1.8569 Si        0      C_A    0.0000
    476 C          99.1959   -0.2510    1.3777 C.3       0      C_A    0.0000
    477 C          99.0827    1.6550    3.7207 C.3       0      C_A    0.0000
    478 O         100.4531    2.3827    1.2456 O.3       0      C_A    0.0000
    479 H         100.0674   -0.7355    1.7961 H         0      C_A    0.0000
    480 H          99.2299   -0.3580    0.3021 H         0      C_A    0.0000
    481 H          98.3170   -0.7631    1.7453 H         0      C_A    0.0000
    482 H          98.2034    1.1493    4.0961 H         0      C_A    0.0000
    483 H          99.0490    2.6864    4.0445 H         0      C_A    0.0000
    484 H          99.9531    1.1880    4.1607 H         0      C_A    0.0000
    485 Si        101.7045    1.7711    1.3262 Si        0      C_A    0.0000
    486 C         101.4430    0.1483    2.2288 C.3       0      C_A    0.0000
    487 C         102.2591    1.3753   -0.4329 C.3       0      C_A    0.0000
    488 C         103.6202    0.7570   -0.5059 C.2       0      C_A    0.0000
    489 O         102.8009    2.6889    2.1660 O.3       0      C_A    0.0000
    490 H         101.0107    0.3251    3.2042 H         0      C_A    0.0000
    491 H         102.3860   -0.3624    2.3646 H         0      C_A    0.0000
    492 H         100.7800   -0.4961    1.6681 H         0      C_A    0.0000
    493 H         101.5327    0.6925   -0.8565 H         0      C_A    0.0000
    494 H         102.2402    2.2837   -1.0217 H         0      C_A    0.0000
    495 H         103.8894    0.5490   -1.5325 H         0      C_A    0.0000
    496 H         104.3933    1.3731   -0.0691 H         0      C_A    0.0000
    497 Si        104.1509    2.5877    1.8327 Si        0      C_A    0.0000
    498 C         104.2136    2.0525    0.0365 C.3       0      C_A    0.0000
    499 C         104.8975    4.3162    1.9508 C.3       0      C_A    0.0000
    500 C         106.3667    4.3536    1.6670 C.2       0      C_A    0.0000
    501 O         104.9465    1.4675    2.7611 O.3       0      C_A    0.0000
    502 H         103.6884    1.1165   -0.0962 H         0      C_A    0.0000
    503 H         105.2383    1.9128   -0.2785 H         0      C_A    0.0000
    504 H         103.7567    2.7987   -0.5988 H         0      C_A    0.0000
    505 H         104.3790    4.9434    1.2359 H         0      C_A    0.0000
    506 H         104.7076    4.7159    2.9389 H         0      C_A    0.0000
    507 H         106.7442    5.3639    1.7463 H         0      C_A    0.0000
    508 H         106.9452    3.7211    2.3254 H         0      C_A    0.0000
    509 Si        106.3391    1.5122    2.8144 Si        0      C_A    0.0000
    510 C         106.8453    1.0714    4.5575 C.3       0      C_A    0.0000
    511 C         106.8535    3.2789    2.4930 C.3       0      C_A    0.0000
    512 O         106.9929    0.4700    1.7026 O.3       0      C_A    0.0000
    513 H         107.9164    1.1600    4.6768 H         0      C_A    0.0000
    514 H         106.5594    0.0548    4.7908 H         0      C_A    0.0000
    515 H         106.3714    1.7327    5.2701 H         0      C_A    0.0000
    516 H         106.3796    3.9476    3.1987 H         0      C_A    0.0000
    517 H         106.5724    3.5808    1.4932 H         0      C_A    0.0000
    518 H         107.9247    3.3878    2.5933 H         0      C_A    0.0000
    519 Si        108.2834    0.7396    1.2461 Si        0      C_A    0.0000
    520 C         108.1998    0.7062   -0.6270 C.3       0      C_A    0.0000
    521 C         108.7197    2.4964    1.7775 C.3       0      C_A    0.0000
    522 C         110.1076    2.9087    1.3976 C.2       0      C_A    0.0000
    523 O         109.3823   -0.3905    1.7608 O.3       0      C_A    0.0000
    524 H         107.8366   -0.2526   -0.9708 H         0      C_A    0.0000
    525 H         109.1816    0.8672   -1.0499 H         0      C_A    0.0000
    526 H         107.5368    1.4786   -0.9918 H         0      C_A    0.0000
    527 H         108.0071    3.1639    1.3085 H         0      C_A    0.0000
    528 H         108.5955    2.5820    2.8496 H         0      C_A    0.0000
    529 H         110.3065    3.9208    1.7228 H         0      C_A    0.0000
    530 H         110.8719    2.2632    1.8063 H         0      C_A    0.0000
    531 Si        110.7263   -0.2115    1.4358 Si        0      C_A    0.0000
    532 C         110.7914    0.8102   -0.1266 C.3       0      C_A    0.0000
    533 C         111.4373   -1.8961    1.0541 C.3       0      C_A    0.0000
    534 O         111.5292    0.5253    2.6857 O.3       0      C_A    0.0000
    535 H         111.8118    0.9208   -0.4669 H         0      C_A    0.0000
    536 H         110.3811    1.7958    0.0465 H         0      C_A    0.0000
    537 H         110.2230    0.3362   -0.9152 H         0      C_A    0.0000
    538 H         110.8711   -2.3792    0.2693 H         0      C_A    0.0000
    539 H         111.4129   -2.5269    1.9322 H         0      C_A    0.0000
    540 H         112.4637   -1.8104    0.7246 H         0      C_A    0.0000
    541 Si        112.4085    1.5605    2.3668 Si        0      C_A    0.0000
    542 C         111.8565    2.2304    0.7046 C.3       0      C_A    0.0000
    543 C         112.1730    2.9230    3.6502 C.3       0      C_A    0.0000
    544 C         113.0954    4.0868    3.4629 C.2       0      C_A    0.0000
    545 O         113.9782    1.0392    2.2480 O.3       0      C_A    0.0000
    546 H         111.8627    1.4451   -0.0390 H         0      C_A    0.0000
    547 H         112.5244    3.0138    0.3745 H         0      C_A    0.0000
    548 H         110.8564    2.6360    0.7712 H         0      C_A    0.0000
    549 H         111.1474    3.2640    3.5773 H         0      C_A    0.0000
    550 H         112.3117    2.5044    4.6390 H         0      C_A    0.0000
    551 H         112.9194    4.8380    4.2208 H         0      C_A    0.0000
    552 H         114.1404    3.8125    3.4913 H         0      C_A    0.0000
    553 Si        115.0039    1.9760    2.3684 Si        0      C_A    0.0000
    554 C         114.8641    2.7414    4.0666 C.3       0      C_A    0.0000
    555 C         114.6887    3.3143    1.1041 C.3       0      C_A    0.0000
    556 O         116.4776    1.2506    2.1409 O.3       0      C_A    0.0000
    557 H         115.5938    3.5298    4.1901 H         0      C_A    0.0000
    558 H         115.0326    1.9979    4.8337 H         0      C_A    0.0000
    559 H         113.8805    3.1671    4.2123 H         0      C_A    0.0000
    560 H         113.7046    3.7419    1.2399 H         0      C_A    0.0000
    561 H         114.7525    2.9130    0.1018 H         0      C_A    0.0000
    562 H         115.4168    4.1081    1.2003 H         0      C_A    0.0000
    563 Si        117.5552    2.0702    1.8042 Si        0      C_A    0.0000
    564 C         117.2934    3.7134    2.6531 C.3       0      C_A    0.0000
    565 C         117.4844    2.3555   -0.0405 C.3       0      C_A    0.0000
    566 O         118.9835    1.3629    2.2621 O.3       0      C_A    0.0000
    567 H         118.0651    4.4157    2.3693 H         0      C_A    0.0000
    568 H         117.3193    3.5944    3.7277 H         0      C_A    0.0000
    569 H         116.3363    4.1355    2.3781 H         0      C_A    0.0000
    570 H         116.5280    2.7731   -0.3245 H         0      C_A    0.0000
    571 H         117.6244    1.4256   -0.5746 H         0      C_A    0.0000
    572 H         118.2579    3.0454   -0.3490 H         0      C_A    0.0000
    573 Si        120.1437    1.7630    1.5986 Si        0      C_A    0.0000
    574 C         119.9791    1.1560   -0.1680 C.3       0      C_A    0.0000
    575 C         120.1592    3.6492    1.5663 C.3       0      C_A    0.0000
    576 C         121.3822    4.2263    0.9248 C.2       0      C_A    0.0000
    577 O         121.5112    1.1099    2.2719 O.3       0      C_A    0.0000
    578 H         119.8469    0.0828   -0.1868 H         0      C_A    0.0000
    579 H         120.8689    1.3969   -0.7326 H         0      C_A    0.0000
    580 H         119.1291    1.6179   -0.6511 H         0      C_A    0.0000
    581 H         119.2819    3.9718    1.0189 H         0      C_A    0.0000
    582 H         120.0705    4.0203    2.5796 H         0      C_A    0.0000
    583 H         121.3413    5.3070    0.9306 H         0      C_A    0.0000
    584 H         122.3012    3.9176    1.4025 H         0      C_A    0.0000
    585 Si        122.6258    1.9289    2.4472 Si        0      C_A    0.0000
    586 C         122.5316    2.6382    4.1726 C.3       0      C_A    0.0000
    587 C         122.4773    3.3410    1.2334 C.3       0      C_A    0.0000
    588 O         124.0207    1.0628    2.2143 O.3       0      C_A    0.0000
    589 H         123.3366    3.3407    4.3400 H         0      C_A    0.0000
    590 H         122.6063    1.8520    4.9114 H         0      C_A    0.0000
    591 H         121.5948    3.1584    4.3195 H         0      C_A    0.0000
    592 H         121.5403    3.8635    1.3705 H         0      C_A    0.0000
    593 H         122.5195    2.9744    0.2168 H         0      C_A    0.0000
    594 H         123.2817    4.0499    1.3738 H         0      C_A    0.0000
    595 Si        125.1886    1.7789    1.9505 Si        0      C_A    0.0000
    596 C         125.0875    2.3134    0.1558 C.3       0      C_A    0.0000
    597 C         125.1589    3.3312    3.0220 C.3       0      C_A    0.0000
    598 C         126.3846    4.1786    2.8812 C.2       0      C_A    0.0000
    599 O         126.5526    0.8611    2.1676 O.3       0      C_A    0.0000
    600 H         124.9821    1.4513   -0.4886 H         0      C_A    0.0000
    601 H         125.9863    2.8414   -0.1303 H         0      C_A    0.0000
    602 H         124.2401    2.9669    0.0009 H         0      C_A    0.0000
    603 H         124.2894    3.9089    2.7329 H         0      C_A    0.0000
    604 H         125.0333    3.0426    4.0580 H         0      C_A    0.0000
    605 H         126.3172    5.0537    3.5131 H         0      C_A    0.0000
    606 H         127.2974    3.6530    3.1234 H         0      C_A    0.0000
    607 Si        127.7277    1.4958    2.5679 Si        0      C_A    0.0000
    608 C         127.8431    1.3368    4.4254 C.3       0      C_A    0.0000
    609 C         127.5521    3.3086    2.1533 C.3       0      C_A    0.0000
    610 O         129.0373    0.8165    1.8106 O.3       0      C_A    0.0000
    611 H         128.7025    1.8750    4.8010 H         0      C_A    0.0000
    612 H         127.9389    0.2986    4.7128 H         0      C_A    0.0000
    613 H         126.9588    1.7427    4.8977 H         0      C_A    0.0000
    614 H         126.6668    3.7212    2.6180 H         0      C_A    0.0000
    615 H         127.4741    3.4482    1.0837 H         0      C_A    0.0000
    616 H         128.4088    3.8650    2.5080 H         0      C_A    0.0000
    617 Si        130.2934    1.3594    2.0824 Si        0      C_A    0.0000
    618 C         130.3345    1.7887    3.8999 C.3       0      C_A    0.0000
    619 C         130.4369    2.9481    1.1105 C.3       0      C_A    0.0000
    620 O         131.4875    0.2820    1.6785 O.3       0      C_A    0.0000
    621 H         131.2630    2.2814    4.1538 H         0      C_A    0.0000
    622 H         130.2463    0.8956    4.5035 H         0      C_A    0.0000
    623 H         129.5202    2.4544    4.1521 H         0      C_A    0.0000
    624 H         129.6230    3.6176    1.3534 H         0      C_A    0.0000
    625 H         130.4100    2.7475    0.0481 H         0      C_A    0.0000
    626 H         131.3664    3.4514    1.3387 H         0      C_A    0.0000
    627 Si        132.6942    0.3655    2.3737 Si        0      C_A    0.0000
    628 C         133.3985   -1.3614    2.4786 C.3       0      C_A    0.0000
    629 C         132.3007    0.9350    4.1086 C.3       0      C_A    0.0000
    630 O         133.7318    1.4065    1.6059 O.3       0      C_A    0.0000
    631 H         134.3026   -1.3685    3.0718 H         0      C_A    0.0000
    632 H         133.6352   -1.7360    1.4921 H         0      C_A    0.0000
    633 H         132.6883   -2.0346    2.9394 H         0      C_A    0.0000
    634 H         131.5868    0.2695    4.5748 H         0      C_A    0.0000
    635 H         131.8817    1.9320    4.0955 H         0      C_A    0.0000
    636 H         133.1947    0.9491    4.7167 H         0      C_A    0.0000
    637 Si        134.9976    1.5852    2.1648 Si        0      C_A    0.0000
    638 C         135.4914   -0.0326    2.9572 C.3       0      C_A    0.0000
    639 C         134.8353    2.8644    3.5163 C.3       0      C_A    0.0000
    640 O         136.0813    2.0553    1.0010 O.3       0      C_A    0.0000
    641 H         136.4377    0.0682    3.4706 H         0      C_A    0.0000
    642 H         135.5901   -0.8076    2.2094 H         0      C_A    0.0000
    643 H         134.7486   -0.3453    3.6786 H         0      C_A    0.0000
    644 H         134.0903    2.5614    4.2395 H         0      C_A    0.0000
    645 H         134.5422    3.8196    3.1024 H         0      C_A    0.0000
    646 H         135.7756    2.9918    4.0348 H         0      C_A    0.0000
    647 Si        137.3877    1.5768    1.1046 Si        0      C_A    0.0000
    648 C         137.2540   -0.2137    1.6459 C.3       0      C_A    0.0000
    649 C         138.1437    1.6070   -0.6235 C.3       0      C_A    0.0000
    650 C         139.5732    1.1647   -0.6587 C.2       0      C_A    0.0000
    651 O         138.2791    2.4168    2.2224 O.3       0      C_A    0.0000
    652 H         136.7169   -0.2852    2.5818 H         0      C_A    0.0000
    653 H         138.2381   -0.6380    1.7875 H         0      C_A    0.0000
    654 H         136.7310   -0.7979    0.9013 H         0      C_A    0.0000
    655 H         137.5507    0.9508   -1.2489 H         0      C_A    0.0000
    656 H         138.0628    2.6085   -1.0267 H         0      C_A    0.0000
    657 H         139.9576    1.1989   -1.6689 H         0      C_A    0.0000
    658 H         140.2196    1.7583   -0.0279 H         0      C_A    0.0000
    659 Si        139.6298    2.1045    2.3706 Si        0      C_A    0.0000
    660 C         140.2651    1.5670    0.6983 C.3       0      C_A    0.0000
    661 C         139.7409    0.6423    3.5277 C.3       0      C_A    0.0000
    662 O         140.4644    3.4137    2.9531 O.3       0      C_A    0.0000
    663 H         141.2944    1.2428    0.7682 H         0      C_A    0.0000
    664 H         140.2123    2.3835   -0.0088 H         0      C_A    0.0000
    665 H         139.6781    0.7434    0.3150 H         0      C_A    0.0000
    666 H         139.1521   -0.1843    3.1539 H         0      C_A    0.0000
    667 H         139.3750    0.9067    4.5105 H         0      C_A    0.0000
    668 H         140.7654    0.3097    3.6237 H         0      C_A    0.0000
    669 Si        141.8229    3.2453    3.2224 Si        0      C_A    0.0000
    670 C         142.0279    3.4744    5.0723 C.3       0      C_A    0.0000
    671 C         142.2692    1.4607    2.8044 C.3       0      C_A    0.0000
    672 C         143.7199    1.1462    2.9971 C.2       0      C_A    0.0000
    673 O         142.7644    4.3569    2.4301 O.3       0      C_A    0.0000
    674 H         141.6692    4.4492    5.3732 H         0      C_A    0.0000
    675 H         143.0706    3.3982    5.3472 H         0      C_A    0.0000
    676 H         141.4733    2.7196    5.6126 H         0      C_A    0.0000
    677 H         141.6760    0.8191    3.4445 H         0      C_A    0.0000
    678 H         141.9859    1.2567    1.7795 H         0      C_A    0.0000
    679 H         143.9223    0.1140    2.7460 H         0      C_A    0.0000
    680 H         144.3748    1.7744    2.4101 H         0      C_A    0.0000
    681 Si        144.1508    4.2561    2.5384 Si        0      C_A    0.0000
    682 C         144.5287    3.5457    4.2242 C.3       0      C_A    0.0000
    683 C         144.8432    5.9898    2.4740 C.3       0      C_A    0.0000
    684 O         144.7573    3.3067    1.3216 O.3       0      C_A    0.0000
    685 H         145.5963    3.5115    4.3923 H         0      C_A    0.0000
    686 H         144.1379    2.5409    4.3095 H         0      C_A    0.0000
    687 H         144.0847    4.1531    5.0013 H         0      C_A    0.0000
    688 H         144.4003    6.6053    3.2452 H         0      C_A    0.0000
    689 H         144.6403    6.4447    1.5140 H         0      C_A    0.0000
    690 H         145.9138    5.9781    2.6260 H         0      C_A    0.0000
    691 Si        146.0717    2.8565    1.4485 Si        0      C_A    0.0000
    692 C         147.0322    3.6220    0.0314 C.3       0      C_A    0.0000
    693 C         146.7593    3.5541    3.0608 C.3       0      C_A    0.0000
    694 C         148.1572    3.1086    3.3571 C.2       0      C_A    0.0000
    695 O         146.1838    1.2049    1.3508 O.3       0      C_A    0.0000
    696 H         146.5935    3.3409   -0.9163 H         0      C_A    0.0000
    697 H         148.0575    3.2796    0.0440 H         0      C_A    0.0000
    698 H         147.0284    4.7005    0.1083 H         0      C_A    0.0000
    699 H         146.7369    4.6343    2.9830 H         0      C_A    0.0000
    700 H         146.1061    3.2687    3.8758 H         0      C_A    0.0000
    701 H         148.5037    3.5360    4.2882 H         0      C_A    0.0000
    702 H         148.2596    2.0343    3.4163 H         0      C_A    0.0000
    703 Si        147.1233    0.5511    2.1471 Si        0      C_A    0.0000
    704 C         146.5574    0.7705    3.9214 C.3       0      C_A    0.0000
    705 C         147.0394   -1.2874    1.7330 C.3       0      C_A    0.0000
    706 C         148.0370   -2.1151    2.4815 C.2       0      C_A    0.0000
    707 O         148.6444    1.1898    1.9794 O.3       0      C_A    0.0000
    708 H         146.4765    1.8214    4.1637 H         0      C_A    0.0000
    709 H         147.2677    0.3206    4.6008 H         0      C_A    0.0000
    710 H         145.5932    0.3051    4.0732 H         0      C_A    0.0000
    711 H         146.0397   -1.6290    1.9725 H         0      C_A    0.0000
    712 H         147.1856   -1.4165    0.6680 H         0      C_A    0.0000
    713 H         147.9468   -3.1580    2.2100 H         0      C_A    0.0000
    714 H         149.0592   -1.8067    2.3141 H         0      C_A    0.0000
    715 Si        149.6922    0.6169    2.6990 Si        0      C_A    0.0000
    716 C         150.0983   -1.0164    1.8888 C.3       0      C_A    0.0000
    717 C         149.0602    0.2658    4.4213 C.3       0      C_A    0.0000
    718 O         151.0016    1.6343    2.7206 O.3       0      C_A    0.0000
    719 H         150.8596   -1.5409    2.4498 H         0      C_A    0.0000
    720 H         150.4626   -0.8613    0.8824 H         0      C_A    0.0000
    721 H         149.2204   -1.6466    1.8420 H         0      C_A    0.0000
    722 H         148.1789   -0.3600    4.3830 H         0      C_A    0.0000
    723 H         148.8046    1.1867    4.9275 H         0      C_A    0.0000
    724 H         149.8120   -0.2468    5.0056 H         0      C_A    0.0000
    725 Si        152.0657    1.2990    3.5582 Si        0      C_A    0.0000
    726 C         152.1638   -0.5654    3.6169 C.3       0      C_A    0.0000
    727 C         151.6408    1.9091    5.2718 C.3       0      C_A    0.0000
    728 O         153.4746    1.9710    2.9986 O.3       0      C_A    0.0000
    729 H         152.9292   -0.8848    4.3108 H         0      C_A    0.0000
    730 H         152.4015   -0.9645    2.6402 H         0      C_A    0.0000
    731 H         151.2208   -0.9862    3.9387 H         0      C_A    0.0000
    732 H         150.6960    1.4966    5.5991 H         0      C_A    0.0000
    733 H         151.5660    2.9879    5.2835 H         0      C_A    0.0000
    734 H         152.4013    1.6125    5.9810 H         0      C_A    0.0000
    735 Si        154.6012    1.1505    2.9371 Si        0      C_A    0.0000
    736 C         154.3245   -0.2225    4.1841 C.3       0      C_A    0.0000
    737 C         154.6470    0.3743    1.2183 C.3       0      C_A    0.0000
    738 C         155.8406   -0.4991    0.9881 C.2       0      C_A    0.0000
    739 O         155.9940    1.9630    3.3243 O.3       0      C_A    0.0000
    740 H         154.1731    0.1908    5.1720 H         0      C_A    0.0000
    741 H         155.1842   -0.8769    4.2196 H         0      C_A    0.0000
    742 H         153.4560   -0.8089    3.9175 H         0      C_A    0.0000
    743 H         153.7452   -0.2148    1.1039 H         0      C_A    0.0000
    744 H         154.6233    1.1612    0.4750 H         0      C_A    0.0000
    745 H         155.8185   -0.9192   -0.0081 H         0      C_A    0.0000
    746 H         156.7802    0.0186    1.1188 H         0      C_A    0.0000
    747 Si        157.1526    1.2255    3.5644 Si        0      C_A    0.0000
    748 C         157.0032   -0.3744    2.6119 C.3       0      C_A    0.0000
    749 C         157.1839    0.8124    5.3857 C.3       0      C_A    0.0000
    750 O         158.4920    2.0898    3.1073 O.3       0      C_A    0.0000
    751 H         157.8454   -1.0204    2.8182 H         0      C_A    0.0000
    752 H         156.9738   -0.1821    1.5480 H         0      C_A    0.0000
    753 H         156.0997   -0.8999    2.8901 H         0      C_A    0.0000
    754 H         156.2811    0.2909    5.6732 H         0      C_A    0.0000
    755 H         157.2626    1.7135    5.9786 H         0      C_A    0.0000
    756 H         158.0279    0.1773    5.6176 H         0      C_A    0.0000
    757 Si        159.6869    1.3890    2.9421 Si        0      C_A    0.0000
    758 C         159.5710   -0.1222    4.0464 C.3       0      C_A    0.0000
    759 C         159.7570    0.7972    1.1522 C.3       0      C_A    0.0000
    760 C         161.0189    0.0673    0.8126 C.2       0      C_A    0.0000
    761 O         161.0093    2.2856    3.3860 O.3       0      C_A    0.0000
    762 H         159.4092    0.1736    5.0739 H         0      C_A    0.0000
    763 H         160.4876   -0.6933    3.9993 H         0      C_A    0.0000
    764 H         158.7530   -0.7578    3.7363 H         0      C_A    0.0000
    765 H         158.9102    0.1406    0.9938 H         0      C_A    0.0000
    766 H         159.6412    1.6491    0.4940 H         0      C_A    0.0000
    767 H         161.0084   -0.2508   -0.2210 H         0      C_A    0.0000
    768 H         161.9104    0.6552    0.9792 H         0      C_A    0.0000
    769 Si        162.0799    2.3814    2.4979 Si        0      C_A    0.0000
    770 C         161.7138    1.1893    1.0974 C.3       0      C_A    0.0000
    771 C         162.0768    4.1297    1.7891 C.3       0      C_A    0.0000
    772 C         163.2115    4.3963    0.8501 C.2       0      C_A    0.0000
    773 O         163.5219    1.9647    3.2026 O.3       0      C_A    0.0000
    774 H         161.5886    0.1856    1.4801 H         0      C_A    0.0000
    775 H         162.5293    1.1812    0.3878 H         0      C_A    0.0000
    776 H         160.8094    1.4774    0.5794 H         0      C_A    0.0000
    777 H         161.1388    4.2658    1.2646 H         0      C_A    0.0000
    778 H         162.1047    4.8413    2.6047 H         0      C_A    0.0000
    779 H         163.1632    5.4084    0.4721 H         0      C_A    0.0000
    780 H         164.1826    4.2468    1.3004 H         0      C_A    0.0000
    781 Si        164.6257    2.7933    3.0051 Si        0      C_A    0.0000
    782 C         164.4846    4.2091    4.2153 C.3       0      C_A    0.0000
    783 C         164.4957    3.4942    1.2786 C.3       0      C_A    0.0000
    784 O         166.0324    1.9412    3.2178 O.3       0      C_A    0.0000
    785 H         165.2799    4.9248    4.0584 H         0      C_A    0.0000
    786 H         164.5475    3.8474    5.2325 H         0      C_A    0.0000
    787 H         163.5405    4.7223    4.0920 H         0      C_A    0.0000
    788 H         163.5517    4.0051    1.1454 H         0      C_A    0.0000
    789 H         164.5652    2.7055    0.5419 H         0      C_A    0.0000
    790 H         165.2911    4.2034    1.0946 H         0      C_A    0.0000
    791 Si        167.2061    2.6706    3.4098 Si        0      C_A    0.0000
    792 C         167.2469    3.2013    5.2002 C.3       0      C_A    0.0000
    793 C         167.0871    4.2073    2.3545 C.3       0      C_A    0.0000
    794 O         168.5280    1.7523    3.0109 O.3       0      C_A    0.0000
    795 H         168.1032    3.8336    5.3905 H         0      C_A    0.0000
    796 H         167.3084    2.3395    5.8508 H         0      C_A    0.0000
    797 H         166.3546    3.7580    5.4525 H         0      C_A    0.0000
    798 H         166.1942    4.7674    2.5973 H         0      C_A    0.0000
    799 H         167.0532    3.9464    1.3055 H         0      C_A    0.0000
    800 H         167.9420    4.8489    2.5186 H         0      C_A    0.0000
    801 Si        169.7589    2.4016    2.9122 Si        0      C_A    0.0000
    802 C         169.7212    3.3656    1.3042 C.3       0      C_A    0.0000
    803 C         169.8641    3.6407    4.3308 C.3       0      C_A    0.0000
    804 C         171.1638    4.3814    4.3825 C.2       0      C_A    0.0000
    805 O         171.0308    1.3381    2.8780 O.3       0      C_A    0.0000
    806 H         169.5417    2.7006    0.4704 H         0      C_A    0.0000
    807 H         170.6670    3.8633    1.1421 H         0      C_A    0.0000
    808 H         168.9388    4.1116    1.3264 H         0      C_A    0.0000
    809 H         169.0538    4.3483    4.2046 H         0      C_A    0.0000
    810 H         169.7046    3.1202    5.2667 H         0      C_A    0.0000
    811 H         171.1724    5.0778    5.2099 H         0      C_A    0.0000
    812 H         172.0224    3.7316    4.4752 H         0      C_A    0.0000
    813 Si        172.1547    1.6160    3.6549 Si        0      C_A    0.0000
    814 C         171.5894    2.7924    5.0014 C.3       0      C_A    0.0000
    815 C         172.6906    0.0051    4.4775 C.3       0      C_A    0.0000
    816 C         173.9272    0.1412    5.3098 C.2       0      C_A    0.0000
    817 O         173.3642    2.3356    2.7779 O.3       0      C_A    0.0000
    818 H         171.1621    3.6855    4.5663 H         0      C_A    0.0000
    819 H         172.4259    3.0849    5.6205 H         0      C_A    0.0000
    820 H         170.8444    2.3225    5.6287 H         0      C_A    0.0000
    821 H         171.8721   -0.3274    5.1043 H         0      C_A    0.0000
    822 H         172.8471   -0.7462    3.7137 H         0      C_A    0.0000
    823 H         174.1902   -0.8069    5.7588 H         0      C_A    0.0000
    824 H         174.7797    0.5023    4.7523 H         0      C_A    0.0000
    825 Si        174.6879    2.0218    3.0833 Si        0      C_A    0.0000
    826 C         175.1234    0.4661    2.1456 C.3       0      C_A    0.0000
    827 C         174.7629    1.6356    4.9093 C.3       0      C_A    0.0000
    828 O         175.6875    3.2821    2.6804 O.3       0      C_A    0.0000
    829 H         176.1204    0.1342    2.4010 H         0      C_A    0.0000
    830 H         175.0854    0.6419    1.0792 H         0      C_A    0.0000
    831 H         174.4316   -0.3296    2.3866 H         0      C_A    0.0000
    832 H         174.0699    0.8437    5.1595 H         0      C_A    0.0000
    833 H         174.5095    2.5097    5.4935 H         0      C_A    0.0000
    834 H         175.7566    1.3144    5.1901 H         0      C_A    0.0000
    835 Si        176.9765    3.2795    3.2140 Si        0      C_A    0.0000
    836 C         177.0289    4.6640    4.4777 C.3       0      C_A    0.0000
    837 C         177.2102    1.6469    4.1300 C.3       0      C_A    0.0000
    838 C         178.5773    1.4805    4.7161 C.2       0      C_A    0.0000
    839 O         178.1360    3.5532    2.0605 O.3       0      C_A    0.0000
    840 H         176.7809    5.6082    4.0126 H         0      C_A    0.0000
    841 H         178.0190    4.7467    4.9038 H         0      C_A    0.0000
    842 H         176.3248    4.4763    5.2767 H         0      C_A    0.0000
    843 H         176.4739    1.6116    4.9237 H         0      C_A    0.0000
    844 H         177.0032    0.8288    3.4516 H         0      C_A    0.0000
    845 H         178.6585    0.5322    5.2298 H         0      C_A    0.0000
    846 H         179.3673    1.5383    3.9808 H         0      C_A    0.0000
    847 Si        179.4242    3.8891    2.4751 Si        0      C_A    0.0000
    848 C         179.2691    4.7904    4.1038 C.3       0      C_A    0.0000
    849 C         180.1214    5.0826    1.2187 C.3       0      C_A    0.0000
    850 O         180.3596    2.5268    2.6134 O.3       0      C_A    0.0000
    851 H         180.2361    5.1395    4.4393 H         0      C_A    0.0000
    852 H         178.8607    4.1369    4.8625 H         0      C_A    0.0000
    853 H         178.6178    5.6481    4.0036 H         0      C_A    0.0000
    854 H         179.4729    5.9412    1.1088 H         0      C_A    0.0000
    855 H         180.2219    4.6036    0.2543 H         0      C_A    0.0000
    856 H         181.0962    5.4343    1.5277 H         0      C_A    0.0000
    857 Si        181.7430    2.6817    2.5208 Si        0      C_A    0.0000
    858 C         182.0921    4.5120    2.3889 C.3       0      C_A    0.0000
    859 C         182.2898    1.8733    0.9282 C.3       0      C_A    0.0000
    860 O         182.4888    2.0075    3.8396 O.3       0      C_A    0.0000
    861 H         183.1489    4.6883    2.2420 H         0      C_A    0.0000
    862 H         181.7833    5.0238    3.2901 H         0      C_A    0.0000
    863 H         181.5595    4.9415    1.5513 H         0      C_A    0.0000
    864 H         181.7578    2.2940    0.0857 H         0      C_A    0.0000
    865 H         182.0990    0.8091    0.9570 H         0      C_A    0.0000
    866 H         183.3483    2.0254    0.7678 H         0      C_A    0.0000
    867 Si        183.8736    1.8469    3.7859 Si        0      C_A    0.0000
    868 C         184.1894   -0.0000    3.7095 C.3       0      C_A    0.0000
    869 C         184.4725    2.6067    2.1664 C.3       0      C_A    0.0000
    870 C         185.9583    2.5528    1.9940 C.2       0      C_A    0.0000
    871 O         184.6324    2.4726    5.1210 O.3       0      C_A    0.0000
    872 H         183.7536   -0.4925    4.5681 H         0      C_A    0.0000
    873 H         185.2517   -0.1999    3.7082 H         0      C_A    0.0000
    874 H         183.7583   -0.4226    2.8124 H         0      C_A    0.0000
    875 H         183.9986    2.0633    1.3579 H         0      C_A    0.0000
    876 H         184.1372    3.6348    2.1136 H         0      C_A    0.0000
    877 H         186.2487    2.9985    1.0524 H         0      C_A    0.0000
    878 H         186.4986    3.0498    2.7872 H         0      C_A    0.0000
    879 Si        185.6742    3.3799    4.9331 Si        0      C_A    0.0000
    880 C         185.8569    4.3557    6.5154 C.3       0      C_A    0.0000
    881 C         185.1497    4.5605    3.5839 C.3       0      C_A    0.0000
    882 O         187.0725    2.5797    4.5399 O.3       0      C_A    0.0000
    883 H         186.6065    5.1268    6.4028 H         0      C_A    0.0000
    884 H         186.1536    3.7082    7.3292 H         0      C_A    0.0000
    885 H         184.9219    4.8310    6.7793 H         0      C_A    0.0000
    886 H         184.2124    5.0365    3.8380 H         0      C_A    0.0000
    887 H         185.0242    4.0353    2.6469 H         0      C_A    0.0000
    888 H         185.8929    5.3335    3.4443 H         0      C_A    0.0000
    889 Si        187.7134    2.9441    3.3555 Si        0      C_A    0.0000
    890 C         186.6105    2.3601    1.9558 C.3       0      C_A    0.0000
    891 C         187.7762    4.8287    3.2988 C.3       0      C_A    0.0000
    892 C         188.4882    5.3674    2.0974 C.2       0      C_A    0.0000
    893 O         189.2050    2.2358    3.2031 O.3       0      C_A    0.0000
    894 H         186.4507    1.2926    2.0225 H         0      C_A    0.0000
    895 H         187.0699    2.5742    1.0010 H         0      C_A    0.0000
    896 H         185.6509    2.8569    1.9953 H         0      C_A    0.0000
    897 H         186.7543    5.1879    3.3000 H         0      C_A    0.0000
    898 H         188.2548    5.1932    4.1990 H         0      C_A    0.0000
    899 H         188.4950    6.4488    2.1120 H         0      C_A    0.0000
    900 H         189.5087    5.0213    2.0148 H         0      C_A    0.0000
    901 Si        190.0882    2.3006    4.2800 Si        0      C_A    0.0000
    902 C         189.8979    0.7180    5.2538 C.3       0      C_A    0.0000
    903 C         189.5397    3.7171    5.3672 C.3       0      C_A    0.0000
    904 O         191.6425    2.5067    3.7402 O.3       0      C_A    0.0000
    905 H         190.5100    0.7435    6.1450 H         0      C_A    0.0000
    906 H         190.1984   -0.1332    4.6583 H         0      C_A    0.0000
    907 H         188.8689    0.5786    5.5560 H         0      C_A    0.0000
    908 H         188.5094    3.5877    5.6698 H         0      C_A    0.0000
    909 H         189.6262    4.6570    4.8393 H         0      C_A    0.0000
    910 H         190.1485    3.7701    6.2594 H         0      C_A    0.0000
    911 Si        192.6577    2.5486    4.6963 Si        0      C_A    0.0000
    912 C         192.4834    1.0248    5.7625 C.3       0      C_A    0.0000
    913 C         192.3498    4.0443    5.7720 C.3       0      C_A    0.0000
    914 O         194.1418    2.6165    3.9597 O.3       0      C_A    0.0000
    915 H         193.2033    1.0402    6.5692 H         0      C_A    0.0000
    916 H         192.6468    0.1304    5.1769 H         0      C_A    0.0000
    917 H         191.4935    0.9746    6.1955 H         0      C_A    0.0000
    918 H         191.3595    4.0042    6.2051 H         0      C_A    0.0000
    919 H         192.4335    4.9533    5.1920 H         0      C_A    0.0000
    920 H         193.0685    4.0875    6.5788 H         0      C_A    0.0000
    921 Si        195.2554    2.2520    4.7169 Si        0      C_A    0.0000
    922 C         194.7244    2.2127    6.5073 C.3       0      C_A    0.0000
    923 C         196.5296    3.6039    4.5221 C.3       0      C_A    0.0000
    924 O         195.8377    0.7822    4.2165 O.3       0      C_A    0.0000
    925 H         195.5685    2.0047    7.1504 H         0      C_A    0.0000
    926 H         193.9782    1.4461    6.6658 H         0      C_A    0.0000
    927 H         194.3044    3.1653    6.8007 H         0      C_A    0.0000
    928 H         196.1157    4.5611    4.8088 H         0      C_A    0.0000
    929 H         196.8617    3.6681    3.4949 H         0      C_A    0.0000
    930 H         197.3904    3.4087    5.1469 H         0      C_A    0.0000
    931 Si        196.4984    0.7339    2.9887 Si        0      C_A    0.0000
    932 C         195.2671    1.3208    1.7018 C.3       0      C_A    0.0000
    933 C         197.9116    1.9819    3.0532 C.3       0      C_A    0.0000
    934 C         198.7472    2.0038    1.8115 C.2       0      C_A    0.0000
    935 O         196.9980   -0.7994    2.6024 O.3       0      C_A    0.0000
    936 H         194.3829    0.6984    1.7150 H         0      C_A    0.0000
    937 H         195.7025    1.2686    0.7137 H         0      C_A    0.0000
    938 H         194.9735    2.3434    1.8951 H         0      C_A    0.0000
    939 H         197.4737    2.9607    3.2070 H         0      C_A    0.0000
    940 H         198.5374    1.7625    3.9090 H         0      C_A    0.0000
    941 H         199.5398    2.7344    1.8988 H         0      C_A    0.0000
    942 H         199.1907    1.0462    1.5782 H         0      C_A    0.0000
    943 Si        198.1449   -1.3023    3.2154 Si        0      C_A    0.0000
    944 C         197.8307   -3.1041    3.5949 C.3       0      C_A    0.0000
    945 C         198.3533   -0.3985    4.8367 C.3       0      C_A    0.0000
    946 O         199.4619   -1.1032    2.2274 O.3       0      C_A    0.0000
    947 H         198.6633   -3.5297    4.1379 H         0      C_A    0.0000
    948 H         197.6960   -3.6671    2.6814 H         0      C_A    0.0000
    949 H         196.9414   -3.2159    4.2004 H         0      C_A    0.0000
    950 H         197.4658   -0.5012    5.4464 H         0      C_A    0.0000
    951 H         198.5308    0.6544    4.6649 H         0      C_A    0.0000
    952 H         199.1908   -0.7992    5.3911 H         0      C_A    0.0000
    953 Si        199.6530    0.1533    1.6520 Si        0      C_A    0.0000
    954 C         201.2977    0.7999    2.2571 C.3       0      C_A    0.0000
    955 C         198.3136    1.2775    2.3087 C.3       0      C_A    0.0000
    956 O         199.6068    0.0437   -0.0020 O.3       0      C_A    0.0000
    957 H         201.4665    1.8059    1.8983 H         0      C_A    0.0000
    958 H         202.1054    0.1726    1.9054 H         0      C_A    0.0000
    959 H         201.3246    0.8190    3.3382 H         0      C_A    0.0000
    960 H         198.3305    1.2982    3.3900 H         0      C_A    0.0000
    961 H         197.3391    0.9354    1.9879 H         0      C_A    0.0000
    962 H         198.4550    2.2879    1.9504 H         0      C_A    0.0000
    963 O           2.0613  -20.1322  -23.8087 O.2       1      C_B    0.0000
    964 H           2.0487  -21.0736  -23.8137 H         1      C_B    0.0000
    965 O          12.9338  -13.8005   27.9590 O.2       2      C_C    0.0000
    966 H          12.9212  -14.7129   28.1908 H         2      C_C    0.0000
    967 O          14.1108   26.2350  -16.8488 O.2       3      C_D    0.0000
    968 H          14.0982   26.3630  -17.7815 H         3      C_D    0.0000
    969 O          24.5999  -25.4357   18.0328 O.2       4      C_E    0.0000
    970 H          24.5873  -26.3485   17.8029 H         4      C_E    0.0000
    971 O          27.8096  -29.8619    8.9679 O.2       5      C_F    0.0000
    972 H          27.7970  -30.6536    8.4585 H         5      C_F    0.0000
    973 O          32.3107  -24.0864  -19.7990 O.2       6      C_G    0.0000
    974 H          32.2981  -24.1046  -20.7402 H         6      C_G    0.0000
    975 O          37.1084  -22.5130  -21.5714 O.2       7      C_H    0.0000
    976 H          37.0958  -22.4596  -22.5112 H         7      C_H    0.0000
    977 O          39.6920   24.6321  -19.1158 O.2       8      C_I    0.0000
    978 H          39.6794   25.5541  -18.9255 H         8      C_I    0.0000
    979 O          50.4058    8.9425  -29.8695 O.2       9      C_J    0.0000
    980 H          50.3932    8.4324  -30.6608 H         9      C_J    0.0000
    981 O          52.8871   30.2379    7.6043 O.2      10      C_K    0.0000
    982 H          52.8745   31.0057    7.0595 H        10      C_K    0.0000
    983 O          57.0055   16.2489   26.6107 O.2      11      C_L    0.0000
    984 H          56.9929   17.1784   26.7599 H        11      C_L    0.0000
    985 O          59.4837  -30.4845    6.5462 O.2      12      C_M    0.0000
    986 H          59.4711  -31.2328    5.9750 H        12      C_M    0.0000
    987 O          69.0573  -15.8429   26.8544 O.2      13      C_N    0.0000
    988 H          69.0447  -15.5374   27.7449 H        13      C_N    0.0000
    989 O          71.4208    5.3756   30.7125 O.2      14      C_O    0.0000
    990 H          71.4082    6.1859   31.1917 H        14      C_O    0.0000
    991 O          78.9206   21.2756   22.7927 O.2      15      C_P    0.0000
    992 H          78.9080   21.1699   23.7281 H        15      C_P    0.0000
    993 O          81.0992    0.8461   31.1679 O.2      16      C_Q    0.0000
    994 H          81.0866    1.5781   31.7600 H        16      C_Q    0.0000
    995 O          81.0579   31.0375    2.9712 O.2      17      C_R    0.0000
    996 H          81.0453   31.7146    2.3172 H        17      C_R    0.0000
    997 O          84.7351   30.4488    6.7102 O.2      18      C_S    0.0000
    998 H          84.7225   30.8922    7.5407 H        18      C_S    0.0000
    999 O          90.7203    0.0735   31.1793 O.2      19      C_T    0.0000
   1000 H          90.7077   -0.6406   31.7927 H        19      C_T    0.0000
   1001 O          98.5810  -30.6267    5.8450 O.2      20      C_U    0.0000
   1002 H          98.5684  -31.0934    6.6626 H        20      C_U    0.0000
   1003 O         103.6057  -29.0487   11.3283 O.2      21      C_V    0.0000
   1004 H         103.5931  -29.8786   10.8839 H        21      C_V    0.0000
   1005 O         106.5804   31.0600    2.7257 O.2      22      C_W    0.0000
   1006 H         106.5678   31.6069    3.4921 H        22      C_W    0.0000
   1007 O         110.2211   31.1601    1.0987 O.2      23      C_X    0.0000
   1008 H         110.2085   31.7966    0.4052 H        23      C_X    0.0000
   1009 O         112.8520   28.2247   13.2485 O.2      24      C_Y    0.0000
   1010 H         112.8394   28.4744   14.1562 H        24      C_Y    0.0000
   1011 O         121.4328   30.9970   -3.3680 O.2      25      C_Z    0.0000
   1012 H         121.4202   31.6824   -2.7227 H        25      C_Z    0.0000
   1013 O         126.4802   29.5837    9.8470 O.2      26     C_AA    0.0000
   1014 H         126.4676   29.9381   10.7191 H        26     C_AA    0.0000
   1015 O         139.6479  -13.4514  -28.1286 O.2      27     C_AB    0.0000
   1016 H         139.6353  -13.0698  -28.9891 H        27     C_AB    0.0000
   1017 O         144.0374    8.7019   29.9405 O.2      28     C_AC    0.0000
   1018 H         144.0248    9.5598   30.3282 H        28     C_AC    0.0000
   1019 O         148.9741   25.6323   17.7523 O.2      29     C_AD    0.0000
   1020 H         148.9615   26.5426   17.5123 H        29     C_AD    0.0000
   1021 O         147.7890  -15.0216   27.3223 O.2      30     C_AE    0.0000
   1022 H         147.7764  -14.6892   28.2031 H        30     C_AE    0.0000
   1023 O         155.8102  -20.0864   23.8473 O.2      31     C_AF    0.0000
   1024 H         155.7976  -19.9331   24.7762 H        31     C_AF    0.0000
   1025 O         161.1058  -16.7207   26.3168 O.2      32     C_AG    0.0000
   1026 H         161.0932  -17.6528   26.4494 H        32     C_AG    0.0000
   1027 O         163.1144   31.1531   -1.2812 O.2      33     C_AH    0.0000
   1028 H         163.1018   31.7349   -2.0214 H        33     C_AH    0.0000
   1029 O         171.3077   26.0267   17.1688 O.2      34     C_AI    0.0000
   1030 H         171.2951   26.9314   16.9083 H        34     C_AI    0.0000
   1031 O         173.6906    4.4652   30.8580 O.2      35     C_AJ    0.0000
   1032 H         173.6780    5.2610   31.3610 H        35     C_AJ    0.0000
   1033 O         178.7870   12.0352   28.7630 O.2      36     C_AK    0.0000
   1034 H         178.7744   12.9315   29.0511 H        36     C_AK    0.0000
   1035 O         186.3509   17.2422   25.9781 O.2      37     C_AL    0.0000
   1036 H         186.3383   16.9843   26.8835 H        37     C_AL    0.0000
   1037 O         187.8337   30.4820    6.5579 O.2      38     C_AM    0.0000
   1038 H         187.8211   31.2305    5.9870 H        38     C_AM    0.0000
   1039 O         197.9786   29.7729    9.2592 O.2      39     C_AN    0.0000
   1040 H         197.9660   30.1445   10.1242 H        39     C_AN    0.0000
   1041 Si          1.3834   -1.6429   -4.0568 Si       40      M_A    0.0000
   1042 C           3.0929   -1.9736   -4.1793 C.3      40      M_A    0.0000
   1043 C           0.5780   -3.1247   -3.6069 C.3      40      M_A    0.0000
   1044 O           0.8159   -1.0584   -5.3749 O.3      40      M_A    0.0000
   1045 H           3.2696   -2.6775   -4.8825 H        40      M_A    0.0000
   1046 H           3.5994   -1.1366   -4.4324 H        40      M_A    0.0000
   1047 H           3.4536   -2.3119   -3.2979 H        40      M_A    0.0000
   1048 H           0.7316   -3.8391   -4.3048 H        40      M_A    0.0000
   1049 H          -0.4175   -2.9750   -3.5181 H        40      M_A    0.0000
   1050 H           0.9304   -3.4668   -2.7236 H        40      M_A    0.0000
   1051 Si          0.5420   -1.8946   -6.3369 Si       41      M_A    0.0000
   1052 C          -1.1817   -2.1682   -6.3152 C.3      41      M_A    0.0000
   1053 C           0.9447   -1.1081   -7.8421 C.3      41      M_A    0.0000
   1054 O           1.3348   -3.2125   -6.1478 O.3      41      M_A    0.0000
   1055 H          -1.4578   -2.7599   -7.0864 H        41      M_A    0.0000
   1056 H          -1.4593   -2.6178   -5.4537 H        41      M_A    0.0000
   1057 H          -1.6816   -1.2934   -6.3952 H        41      M_A    0.0000
   1058 H           0.6882   -1.6900   -8.6274 H        41      M_A    0.0000
   1059 H           1.9372   -0.9245   -7.8926 H        41      M_A    0.0000
   1060 H           0.4520   -0.2297   -7.9273 H        41      M_A    0.0000
   1061 Si          1.5399   -3.9497   -7.2033 Si       42      M_A    0.0000
   1062 C          -0.0187   -4.2952   -7.9091 C.3      42      M_A    0.0000
   1063 C           2.4471   -2.9880   -8.3429 C.3      42      M_A    0.0000
   1064 O           2.2953   -5.2464   -6.8170 O.3      42      M_A    0.0000
   1065 H           0.0878   -4.8103   -8.7719 H        42      M_A    0.0000
   1066 H          -0.5808   -4.8469   -7.2760 H        42      M_A    0.0000
   1067 H          -0.5142   -3.4383   -8.1134 H        42      M_A    0.0000
   1068 H           2.5762   -3.4911   -9.2097 H        42      M_A    0.0000
   1069 H           3.3576   -2.7590   -7.9689 H        42      M_A    0.0000
   1070 H           1.9598   -2.1268   -8.5486 H        42      M_A    0.0000
   1071 Si          2.4824   -6.1364   -7.7511 Si       43      M_A    0.0000
   1072 C           0.9186   -6.7882   -8.1712 C.3      43      M_A    0.0000
   1073 C           3.1121   -5.3014   -9.1485 C.3      43      M_A    0.0000
   1074 O           3.4508   -7.2408   -7.2576 O.3      43      M_A    0.0000
   1075 H           0.9990   -7.4376   -8.9412 H        43      M_A    0.0000
   1076 H           0.5140   -7.2760   -7.3841 H        43      M_A    0.0000
   1077 H           0.2879   -6.0485   -8.4481 H        43      M_A    0.0000
   1078 H           3.2127   -5.9371   -9.9275 H        43      M_A    0.0000
   1079 H           4.0175   -4.9012   -8.9451 H        43      M_A    0.0000
   1080 H           2.4887   -4.5568   -9.4286 H        43      M_A    0.0000
   1081 Si          3.7178   -8.2190   -8.0769 Si       44      M_A    0.0000
   1082 C           3.8118   -9.6820   -7.1295 C.3      44      M_A    0.0000
   1083 C           2.3642   -8.3692   -9.1686 C.3      44      M_A    0.0000
   1084 O           5.0397   -7.9410   -8.8363 O.3      44      M_A    0.0000
   1085 H           3.9513  -10.4847   -7.7273 H        44      M_A    0.0000
   1086 H           4.5817   -9.6336   -6.4766 H        44      M_A    0.0000
   1087 H           2.9579   -9.8230   -6.6076 H        44      M_A    0.0000
   1088 H           2.4904   -9.1598   -9.7852 H        44      M_A    0.0000
   1089 H           2.2695   -7.5367   -9.7336 H        44      M_A    0.0000
   1090 H           1.5054   -8.5058   -8.6535 H        44      M_A    0.0000
   1091 Si          5.4789   -8.8674   -9.6416 Si       45      M_A    0.0000
   1092 C           7.2190   -8.7376   -9.6860 C.3      45      M_A    0.0000
   1093 C           5.0708  -10.4099   -8.9341 C.3      45      M_A    0.0000
   1094 O           4.8545   -8.6984  -11.0497 O.3      45      M_A    0.0000
   1095 H           7.6168   -9.4786  -10.2461 H        45      M_A    0.0000
   1096 H           7.4991   -7.8520  -10.0841 H        45      M_A    0.0000
   1097 H           7.6046   -8.8059   -8.7542 H        45      M_A    0.0000
   1098 H           5.4488  -11.1663   -9.4873 H        45      M_A    0.0000
   1099 H           4.0678  -10.5231   -8.8831 H        45      M_A    0.0000
   1100 H           5.4491  -10.4839   -7.9998 H        45      M_A    0.0000
   1101 Si          3.7381   -9.3258  -11.2936 Si       46      M_A    0.0000
   1102 C           3.3005  -10.1943   -9.8441 C.3      46      M_A    0.0000
   1103 C           2.5141   -8.1170  -11.5887 C.3      46      M_A    0.0000
   1104 O           3.9081  -10.2781  -12.5042 O.3      46      M_A    0.0000
   1105 H           2.4038  -10.6464   -9.9573 H        46      M_A    0.0000
   1106 H           3.9897  -10.9024   -9.6326 H        46      M_A    0.0000
   1107 H           3.2376   -9.5635   -9.0570 H        46      M_A    0.0000
   1108 H           1.6103   -8.5499  -11.7179 H        46      M_A    0.0000
   1109 H           2.7337   -7.5844  -12.4190 H        46      M_A    0.0000
   1110 H           2.4486   -7.4792  -10.8074 H        46      M_A    0.0000
   1111 Si          3.6689  -11.5453  -12.3129 Si       47      M_A    0.0000
   1112 C           4.8251  -12.1231  -11.1399 C.3      47      M_A    0.0000
   1113 C           2.0764  -11.6752  -11.6101 C.3      47      M_A    0.0000
   1114 O           3.7712  -12.3213  -13.6503 O.3      47      M_A    0.0000
   1115 H           4.6409  -13.0884  -10.9044 H        47      M_A    0.0000
   1116 H           5.7649  -12.0585  -11.5059 H        47      M_A    0.0000
   1117 H           4.7738  -11.5768  -10.2911 H        47      M_A    0.0000
   1118 H           1.8669  -12.6363  -11.3789 H        47      M_A    0.0000
   1119 H           1.3745  -11.3430  -12.2569 H        47      M_A    0.0000
   1120 H           2.0159  -11.1274  -10.7629 H        47      M_A    0.0000
   1121 Si          4.2581  -11.6870  -14.6799 Si       48      M_A    0.0000
   1122 C           3.1936  -10.3455  -15.0172 C.3      48      M_A    0.0000
   1123 C           5.8090  -11.0399  -14.2081 C.3      48      M_A    0.0000
   1124 O           4.3799  -12.6424  -15.8937 O.3      48      M_A    0.0000
   1125 H           3.5624   -9.7788  -15.7682 H        48      M_A    0.0000
   1126 H           2.2786  -10.6776  -15.2886 H        48      M_A    0.0000
   1127 H           3.0919   -9.7583  -14.2008 H        48      M_A    0.0000
   1128 H           6.2018  -10.4796  -14.9517 H        48      M_A    0.0000
   1129 H           6.4560  -11.7867  -13.9964 H        48      M_A    0.0000
   1130 H           5.7160  -10.4551  -13.3891 H        48      M_A    0.0000
   1131 Si          4.0377  -13.8880  -15.7176 Si       49      M_A    0.0000
   1132 C           4.9607  -14.4965  -14.3669 C.3      49      M_A    0.0000
   1133 C           2.3505  -13.9071  -15.2706 C.3      49      M_A    0.0000
   1134 O           4.2992  -14.7067  -17.0070 O.3      49      M_A    0.0000
   1135 H           4.6841  -15.4426  -14.1443 H        49      M_A    0.0000
   1136 H           5.9481  -14.4958  -14.5823 H        49      M_A    0.0000
   1137 H           4.8114  -13.9240  -13.5475 H        49      M_A    0.0000
   1138 H           2.0499  -14.8478  -15.0563 H        49      M_A    0.0000
   1139 H           1.7790  -13.5544  -16.0257 H        49      M_A    0.0000
   1140 H           2.1925  -13.3327  -14.4542 H        49      M_A    0.0000
   1141 Si          3.7968  -15.9080  -17.0710 Si       50      M_A    0.0000
   1142 C           4.3689  -16.7876  -15.6761 C.3      50      M_A    0.0000
   1143 C           2.0630  -15.7558  -16.9392 C.3      50      M_A    0.0000
   1144 O           4.2136  -16.5970  -18.3949 O.3      50      M_A    0.0000
   1145 H           3.9538  -17.7082  -15.6412 H        50      M_A    0.0000
   1146 H           5.3735  -16.8923  -15.7097 H        50      M_A    0.0000
   1147 H           4.1261  -16.3005  -14.8245 H        50      M_A    0.0000
   1148 H           1.6267  -16.6670  -16.9159 H        50      M_A    0.0000
   1149 H           1.6904  -15.2444  -17.7271 H        50      M_A    0.0000
   1150 H           1.8125  -15.2653  -16.0918 H        50      M_A    0.0000
   1151 Si          4.2926  -15.8536  -19.4629 Si       51      M_A    0.0000
   1152 C           3.2049  -16.5283  -20.6496 C.3      51      M_A    0.0000
   1153 C           3.7085  -14.2649  -19.0369 C.3      51      M_A    0.0000
   1154 O           5.7520  -15.8086  -19.9819 O.3      51      M_A    0.0000
   1155 H           3.1772  -15.9488  -21.4770 H        51      M_A    0.0000
   1156 H           3.5043  -17.4549  -20.9197 H        51      M_A    0.0000
   1157 H           2.2672  -16.5906  -20.2776 H        51      M_A    0.0000
   1158 H           3.6854  -13.6647  -19.8495 H        51      M_A    0.0000
   1159 H           4.3087  -13.8398  -18.3439 H        51      M_A    0.0000
   1160 H           2.7725  -14.3196  -18.6596 H        51      M_A    0.0000
   1161 Si          6.2257  -16.8851  -20.5443 Si       52      M_A    0.0000
   1162 C           4.8706  -17.9248  -20.9043 C.3      52      M_A    0.0000
   1163 C           6.9549  -16.4062  -22.0560 C.3      52      M_A    0.0000
   1164 O           7.2477  -17.5778  -19.6079 O.3      52      M_A    0.0000
   1165 H           5.1767  -18.7480  -21.4040 H        52      M_A    0.0000
   1166 H           4.4138  -18.2206  -20.0528 H        52      M_A    0.0000
   1167 H           4.1943  -17.4413  -21.4790 H        52      M_A    0.0000
   1168 H           7.2802  -17.2154  -22.5663 H        52      M_A    0.0000
   1169 H           7.7429  -15.7950  -21.8924 H        52      M_A    0.0000
   1170 H           6.2856  -15.9175  -22.6346 H        52      M_A    0.0000
   1171 Si          7.0583  -18.8385  -19.3356 Si       53      M_A    0.0000
   1172 C           6.4713  -19.6038  -20.7904 C.3      53      M_A    0.0000
   1173 C           8.6150  -19.5291  -18.9530 C.3      53      M_A    0.0000
   1174 O           6.0580  -18.9925  -18.1622 O.3      53      M_A    0.0000
   1175 H           6.3710  -20.5999  -20.6528 H        53      M_A    0.0000
   1176 H           5.5711  -19.2262  -21.0520 H        53      M_A    0.0000
   1177 H           7.1152  -19.4551  -21.5550 H        53      M_A    0.0000
   1178 H           8.5344  -20.5245  -18.7985 H        53      M_A    0.0000
   1179 H           8.9952  -19.1069  -18.1173 H        53      M_A    0.0000
   1180 H           9.2661  -19.3802  -19.7115 H        53      M_A    0.0000
   1181 Si          5.4580  -20.1421  -18.0280 Si       54      M_A    0.0000
   1182 C           6.3453  -21.3074  -18.9775 C.3      54      M_A    0.0000
   1183 C           5.5855  -20.6042  -16.3497 C.3      54      M_A    0.0000
   1184 O           3.9807  -20.0359  -18.4836 O.3      54      M_A    0.0000
   1185 H           5.9599  -22.2335  -18.8550 H        54      M_A    0.0000
   1186 H           6.3026  -21.0720  -19.9593 H        54      M_A    0.0000
   1187 H           7.3156  -21.3307  -18.6957 H        54      M_A    0.0000
   1188 H           5.1931  -21.5238  -16.2031 H        54      M_A    0.0000
   1189 H           5.0890  -19.9488  -15.7621 H        54      M_A    0.0000
   1190 H           6.5533  -20.6251  -16.0592 H        54      M_A    0.0000
   1191 Si          3.7546  -19.7585  -19.7372 Si       55      M_A    0.0000
   1192 C           4.3060  -18.1264  -20.0179 C.3      55      M_A    0.0000
   1193 C           4.7410  -20.8336  -20.6954 C.3      55      M_A    0.0000
   1194 O           2.2480  -19.9193  -20.0620 O.3      55      M_A    0.0000
   1195 H           4.2150  -17.8831  -20.9945 H        55      M_A    0.0000
   1196 H           3.7634  -17.4697  -19.4742 H        55      M_A    0.0000
   1197 H           5.2782  -18.0300  -19.7590 H        55      M_A    0.0000
   1198 H           4.6539  -20.6152  -21.6781 H        55      M_A    0.0000
   1199 H           4.4581  -21.7938  -20.5563 H        55      M_A    0.0000
   1200 H           5.7146  -20.7463  -20.4387 H        55      M_A    0.0000
   1201 Si          1.7122  -19.0577  -20.8806 Si       56      M_A    0.0000
   1202 C          -0.0102  -19.0713  -20.5981 C.3      56      M_A    0.0000
   1203 C           2.3178  -17.4793  -20.4462 C.3      56      M_A    0.0000
   1204 O           2.0563  -19.4210  -22.3471 O.2      56      M_A    0.0000
   1205 H          -0.4689  -18.3698  -21.1625 H        56      M_A    0.0000
   1206 H          -0.4013  -19.9734  -20.8314 H        56      M_A    0.0000
   1207 H          -0.2129  -18.8759  -19.6274 H        56      M_A    0.0000
   1208 H           1.8805  -16.7632  -21.0093 H        56      M_A    0.0000
   1209 H           3.3171  -17.4306  -20.5889 H        56      M_A    0.0000
   1210 H           2.1229  -17.2786  -19.4750 H        56      M_A    0.0000
   1211 Si         12.2559   -0.2846   -0.4931 Si       57      M_A    0.0000
   1212 C          12.2489   -1.9987   -0.5720 C.3      57      M_A    0.0000
   1213 C          13.7196    0.2060    0.2561 C.3      57      M_A    0.0000
   1214 O          11.0364    0.2513    0.2459 O.3      57      M_A    0.0000
   1215 H          12.2998   -2.3910    0.3392 H        57      M_A    0.0000
   1216 H          11.4175   -2.3248   -1.0073 H        57      M_A    0.0000
   1217 H          13.0274   -2.3277   -1.0943 H        57      M_A    0.0000
   1218 H          13.7840   -0.1660    1.1749 H        57      M_A    0.0000
   1219 H          13.7666    1.1965    0.3154 H        57      M_A    0.0000
   1220 H          14.5031   -0.1157   -0.2635 H        57      M_A    0.0000
   1221 Si         10.4961   -0.5072    1.1263 Si       58      M_A    0.0000
   1222 C           9.3443    0.4366    1.9789 C.3      58      M_A    0.0000
   1223 C           9.6524   -1.7446    0.2888 C.3      58      M_A    0.0000
   1224 O          11.5577   -1.0787    2.0574 O.3      58      M_A    0.0000
   1225 H           8.8478   -0.1234    2.6321 H        58      M_A    0.0000
   1226 H           9.7930    1.1717    2.4741 H        58      M_A    0.0000
   1227 H           8.6861    0.8362    1.3509 H        58      M_A    0.0000
   1228 H           9.1587   -2.3246    0.9265 H        58      M_A    0.0000
   1229 H          10.2851   -2.3122   -0.2254 H        58      M_A    0.0000
   1230 H           8.9952   -1.3523   -0.3448 H        58      M_A    0.0000
   1231 Si         11.1734   -1.9053    2.9583 Si       59      M_A    0.0000
   1232 C           9.8253   -1.2045    3.7556 C.3      59      M_A    0.0000
   1233 C          10.6368   -3.3244    2.1567 C.3      59      M_A    0.0000
   1234 O          12.3113   -2.2004    3.9271 O.3      59      M_A    0.0000
   1235 H           9.4463   -1.8358    4.4224 H        59      M_A    0.0000
   1236 H          10.0929   -0.3729    4.2287 H        59      M_A    0.0000
   1237 H           9.1113   -0.9791    3.1025 H        59      M_A    0.0000
   1238 H          10.2653   -3.9752    2.8088 H        59      M_A    0.0000
   1239 H          11.3891   -3.7589    1.6748 H        59      M_A    0.0000
   1240 H           9.9255   -3.1061    1.4982 H        59      M_A    0.0000
   1241 Si         12.0046   -2.6954    5.0687 Si       60      M_A    0.0000
   1242 C          10.4006   -2.2023    5.4272 C.3      60      M_A    0.0000
   1243 C          12.0104   -4.4035    4.9052 C.3      60      M_A    0.0000
   1244 O          12.9899   -2.2269    6.1318 O.3      60      M_A    0.0000
   1245 H          10.0891   -2.6152    6.2753 H        60      M_A    0.0000
   1246 H          10.3522   -1.2147    5.5235 H        60      M_A    0.0000
   1247 H           9.7798   -2.4786    4.7024 H        60      M_A    0.0000
   1248 H          11.7137   -4.8366    5.7486 H        60      M_A    0.0000
   1249 H          12.9234   -4.7306    4.6898 H        60      M_A    0.0000
   1250 H          11.3949   -4.6872    4.1787 H        60      M_A    0.0000
   1251 Si         12.6168   -2.2924    7.3561 Si       61      M_A    0.0000
   1252 C          12.8158   -0.7301    8.0371 C.3      61      M_A    0.0000
   1253 C          10.9417   -2.6645    7.3624 C.3      61      M_A    0.0000
   1254 O          13.4307   -3.3414    8.1030 O.3      61      M_A    0.0000
   1255 H          12.4777   -0.7099    8.9709 H        61      M_A    0.0000
   1256 H          13.7753   -0.4726    8.0458 H        61      M_A    0.0000
   1257 H          12.3131   -0.0531    7.5115 H        61      M_A    0.0000
   1258 H          10.5865   -2.6621    8.2901 H        61      M_A    0.0000
   1259 H          10.7820   -3.5623    6.9683 H        61      M_A    0.0000
   1260 H          10.4328   -1.9940    6.8346 H        61      M_A    0.0000
   1261 Si         12.9678   -3.7663    9.2199 Si       62      M_A    0.0000
   1262 C          11.5847   -2.8221    9.5942 C.3      62      M_A    0.0000
   1263 C          12.4551   -5.3861    8.9795 C.3      62      M_A    0.0000
   1264 O          14.0304   -3.6661   10.3068 O.3      62      M_A    0.0000
   1265 H          11.1474   -3.1551   10.4216 H        62      M_A    0.0000
   1266 H          11.8382   -1.8719    9.7348 H        62      M_A    0.0000
   1267 H          10.9219   -2.8650    8.8553 H        62      M_A    0.0000
   1268 H          12.0257   -5.7426    9.8013 H        62      M_A    0.0000
   1269 H          13.2284   -5.9672    8.7530 H        62      M_A    0.0000
   1270 H          11.7951   -5.4375    8.2386 H        62      M_A    0.0000
   1271 Si         13.6299   -3.5505   11.5187 Si       63      M_A    0.0000
   1272 C          14.8075   -2.6306   12.3622 C.3      63      M_A    0.0000
   1273 C          12.1707   -2.6481   11.4926 C.3      63      M_A    0.0000
   1274 O          13.4324   -4.9249   12.1452 O.3      63      M_A    0.0000
   1275 H          14.5123   -2.4552   13.2944 H        63      M_A    0.0000
   1276 H          15.6732   -3.1169   12.3943 H        63      M_A    0.0000
   1277 H          14.9542   -1.7559   11.9145 H        63      M_A    0.0000
   1278 H          11.8513   -2.4729   12.4167 H        63      M_A    0.0000
   1279 H          11.4617   -3.1449   11.0052 H        63      M_A    0.0000
   1280 H          12.3086   -1.7735   11.0419 H        63      M_A    0.0000
   1281 Si         12.8020   -4.9835   13.2595 Si       64      M_A    0.0000
   1282 C          12.6972   -3.3848   13.8739 C.3      64      M_A    0.0000
   1283 C          11.2102   -5.5268   12.9201 C.3      64      M_A    0.0000
   1284 O          13.5216   -5.9140   14.2274 O.3      64      M_A    0.0000
   1285 H          12.1580   -3.3653   14.7080 H        64      M_A    0.0000
   1286 H          13.6021   -3.0290   14.0778 H        64      M_A    0.0000
   1287 H          12.2645   -2.7835   13.2118 H        64      M_A    0.0000
   1288 H          10.6573   -5.5270   13.7454 H        64      M_A    0.0000
   1289 H          11.2270   -6.4503   12.5543 H        64      M_A    0.0000
   1290 H          10.7725   -4.9327   12.2548 H        64      M_A    0.0000
   1291 Si         13.2852   -5.7661   15.4783 Si       65      M_A    0.0000
   1292 C          14.6993   -5.1074   16.1930 C.3      65      M_A    0.0000
   1293 C          12.0266   -4.6097   15.6292 C.3      65      M_A    0.0000
   1294 O          12.9041   -7.1002   16.1072 O.3      65      M_A    0.0000
   1295 H          14.5463   -4.9111   17.1547 H        65      M_A    0.0000
   1296 H          15.4571   -5.7458   16.1205 H        65      M_A    0.0000
   1297 H          14.9571   -4.2606   15.7417 H        65      M_A    0.0000
   1298 H          11.8490   -4.4088   16.5857 H        65      M_A    0.0000
   1299 H          11.1881   -4.9508   15.2200 H        65      M_A    0.0000
   1300 H          12.2754   -3.7612   15.1760 H        65      M_A    0.0000
   1301 Si         12.5293   -7.0925   17.3327 Si       66      M_A    0.0000
   1302 C          12.4230   -5.4525   17.8260 C.3      66      M_A    0.0000
   1303 C          10.9527   -7.7671   17.3909 C.3      66      M_A    0.0000
   1304 O          13.5113   -7.8779   18.1925 O.3      66      M_A    0.0000
   1305 H          12.0715   -5.3881   18.7529 H        66      M_A    0.0000
   1306 H          13.3177   -5.0213   17.7998 H        66      M_A    0.0000
   1307 H          11.8122   -4.9464   17.2277 H        66      M_A    0.0000
   1308 H          10.5876   -7.7241   18.3138 H        66      M_A    0.0000
   1309 H          10.9691   -8.7184   17.1049 H        66      M_A    0.0000
   1310 H          10.3369   -7.2688   16.7912 H        66      M_A    0.0000
   1311 Si         13.5326   -7.6259   19.4489 Si       67      M_A    0.0000
   1312 C          15.1651   -7.7340   19.9660 C.3      67      M_A    0.0000
   1313 C          13.0173   -6.0022   19.6549 C.3      67      M_A    0.0000
   1314 O          12.6367   -8.6020   20.2007 O.3      67      M_A    0.0000
   1315 H          15.2462   -7.4820   20.9234 H        67      M_A    0.0000
   1316 H          15.5055   -8.6609   19.8563 H        67      M_A    0.0000
   1317 H          15.7410   -7.1225   19.4354 H        67      M_A    0.0000
   1318 H          13.0786   -5.7343   20.6095 H        67      M_A    0.0000
   1319 H          12.0748   -5.8948   19.3595 H        67      M_A    0.0000
   1320 H          13.5860   -5.3849   19.1233 H        67      M_A    0.0000
   1321 Si         12.3544   -8.3287   21.4205 Si       68      M_A    0.0000
   1322 C          13.6662   -7.4266   22.0606 C.3      68      M_A    0.0000
   1323 C          10.9688   -7.3166   21.4118 C.3      68      M_A    0.0000
   1324 O          12.1127   -9.6097   22.2086 O.3      68      M_A    0.0000
   1325 H          13.4682   -7.1317   22.9883 H        68      M_A    0.0000
   1326 H          14.4934   -7.9766   22.0768 H        68      M_A    0.0000
   1327 H          13.8367   -6.6181   21.5088 H        68      M_A    0.0000
   1328 H          10.7460   -7.0207   22.3336 H        68      M_A    0.0000
   1329 H          10.1849   -7.8010   21.0405 H        68      M_A    0.0000
   1330 H          11.1302   -6.5078   20.8579 H        68      M_A    0.0000
   1331 Si         11.8823   -9.4987   23.4644 Si       69      M_A    0.0000
   1332 C          12.7353  -10.7599   24.2556 C.3      69      M_A    0.0000
   1333 C          12.5495   -8.0036   23.9779 C.3      69      M_A    0.0000
   1334 O          10.3854   -9.5721   23.7374 O.3      69      M_A    0.0000
   1335 H          12.6431  -10.6797   25.2414 H        69      M_A    0.0000
   1336 H          12.3828  -11.6467   23.9794 H        69      M_A    0.0000
   1337 H          13.7025  -10.7220   24.0313 H        69      M_A    0.0000
   1338 H          12.4556   -7.8980   24.9612 H        69      M_A    0.0000
   1339 H          12.0861   -7.2442   23.5358 H        69      M_A    0.0000
   1340 H          13.5161   -7.9565   23.7527 H        69      M_A    0.0000
   1341 Si          9.7696  -10.6386   23.3824 Si       70      M_A    0.0000
   1342 C           8.2968  -10.1586   22.6444 C.3      70      M_A    0.0000
   1343 C          10.7316  -11.4140   22.1918 C.3      70      M_A    0.0000
   1344 O           9.5298  -11.5384   24.5879 O.3      70      M_A    0.0000
   1345 H           7.8093  -10.9485   22.2905 H        70      M_A    0.0000
   1346 H           7.7111   -9.6976   23.3011 H        70      M_A    0.0000
   1347 H           8.4708   -9.5382   21.8880 H        70      M_A    0.0000
   1348 H          10.2664  -12.2154   21.8338 H        70      M_A    0.0000
   1349 H          11.6001  -11.7027   22.5783 H        70      M_A    0.0000
   1350 H          10.9137  -10.7978   21.4339 H        70      M_A    0.0000
   1351 Si         10.4051  -11.5216   25.5239 Si       71      M_A    0.0000
   1352 C          11.7999  -10.7350   24.9073 C.3      71      M_A    0.0000
   1353 C           9.7745  -10.5614   26.7985 C.3      71      M_A    0.0000
   1354 O          10.7148  -12.9398   25.9857 O.3      71      M_A    0.0000
   1355 H          12.4883  -10.6366   25.6167 H        71      M_A    0.0000
   1356 H          12.1935  -11.2574   24.1595 H        71      M_A    0.0000
   1357 H          11.5702   -9.8286   24.5713 H        71      M_A    0.0000
   1358 H          10.4443  -10.4614   27.5253 H        71      M_A    0.0000
   1359 H           8.9585  -10.9801   27.1803 H        71      M_A    0.0000
   1360 H           9.5381   -9.6545   26.4689 H        71      M_A    0.0000
   1361 Si         11.5659  -13.0823   26.9332 Si       72      M_A    0.0000
   1362 C          11.6259  -11.6000   27.7956 C.3      72      M_A    0.0000
   1363 C          10.9574  -14.2877   27.9920 C.3      72      M_A    0.0000
   1364 O          12.9288  -13.4625   26.3690 O.2      72      M_A    0.0000
   1365 H          12.2249  -11.6782   28.5842 H        72      M_A    0.0000
   1366 H          11.9680  -10.8711   27.2137 H        72      M_A    0.0000
   1367 H          10.7211  -11.3465   28.1184 H        72      M_A    0.0000
   1368 H          11.5503  -14.3905   28.7824 H        72      M_A    0.0000
   1369 H          10.9002  -15.1639   27.5274 H        72      M_A    0.0000
   1370 H          10.0503  -14.0432   28.3155 H        72      M_A    0.0000
   1371 Si         13.4329    3.9840   -4.1595 Si       73      M_A    0.0000
   1372 C          14.9071    3.8858   -4.8896 C.3      73      M_A    0.0000
   1373 C          12.2819    4.0189   -5.3384 C.3      73      M_A    0.0000
   1374 O          13.3412    5.1478   -3.2778 O.3      73      M_A    0.0000
   1375 H          15.0541    4.6419   -5.4526 H        73      M_A    0.0000
   1376 H          15.6030    3.8567   -4.2375 H        73      M_A    0.0000
   1377 H          14.9637    3.0996   -5.4273 H        73      M_A    0.0000
   1378 H          12.4048    4.7762   -5.9055 H        73      M_A    0.0000
   1379 H          11.4099    4.0693   -4.9544 H        73      M_A    0.0000
   1380 H          12.3297    3.2331   -5.8776 H        73      M_A    0.0000
   1381 Si         12.9181    6.1973   -3.7623 Si       74      M_A    0.0000
   1382 C          11.6400    5.8132   -4.7292 C.3      74      M_A    0.0000
   1383 C          12.3567    7.1223   -2.5193 C.3      74      M_A    0.0000
   1384 O          13.9771    6.8770   -4.5084 O.3      74      M_A    0.0000
   1385 H          11.2354    6.6026   -5.0803 H        74      M_A    0.0000
   1386 H          11.9240    5.2701   -5.4604 H        74      M_A    0.0000
   1387 H          10.9782    5.3343   -4.2362 H        74      M_A    0.0000
   1388 H          11.9586    7.9237   -2.8502 H        74      M_A    0.0000
   1389 H          13.0687    7.3610   -1.9307 H        74      M_A    0.0000
   1390 H          11.6972    6.6477   -2.0189 H        74      M_A    0.0000
   1391 Si         13.7132    7.9741   -5.0001 Si       75      M_A    0.0000
   1392 C          12.3958    7.7749   -5.9699 C.3      75      M_A    0.0000
   1393 C          13.2889    8.9784   -3.7643 C.3      75      M_A    0.0000
   1394 O          14.8624    8.4877   -5.7457 O.3      75      M_A    0.0000
   1395 H          12.1117    8.6128   -6.3269 H        75      M_A    0.0000
   1396 H          12.5998    7.1919   -6.6971 H        75      M_A    0.0000
   1397 H          11.6696    7.4005   -5.4769 H        75      M_A    0.0000
   1398 H          13.0131    9.8273   -4.1010 H        75      M_A    0.0000
   1399 H          14.0263    9.1142   -3.1743 H        75      M_A    0.0000
   1400 H          12.5657    8.6080   -3.2640 H        75      M_A    0.0000
   1401 Si         14.6426    9.3081   -6.6365 Si       76      M_A    0.0000
   1402 C          14.9127    8.5549   -8.0772 C.3      76      M_A    0.0000
   1403 C          13.0444    9.7024   -6.5595 C.3      76      M_A    0.0000
   1404 O          15.4992   10.4823   -6.4700 O.3      76      M_A    0.0000
   1405 H          14.6942    9.1325   -8.8044 H        76      M_A    0.0000
   1406 H          15.8296    8.3038   -8.1577 H        76      M_A    0.0000
   1407 H          14.3765    7.7689   -8.1508 H        76      M_A    0.0000
   1408 H          12.8088   10.2906   -7.2728 H        76      M_A    0.0000
   1409 H          12.8456   10.1367   -5.7335 H        76      M_A    0.0000
   1410 H          12.5020    8.9203   -6.6280 H        76      M_A    0.0000
   1411 Si         15.3484   11.4139   -7.2601 Si       77      M_A    0.0000
   1412 C          15.3322   10.7739   -8.7786 C.3      77      M_A    0.0000
   1413 C          13.8658   12.0717   -6.9687 C.3      77      M_A    0.0000
   1414 O          16.4191   12.3976   -7.0980 O.3      77      M_A    0.0000
   1415 H          15.1539   11.4510   -9.4267 H        77      M_A    0.0000
   1416 H          16.1747   10.3758   -8.9838 H        77      M_A    0.0000
   1417 H          14.6557   10.1052   -8.8539 H        77      M_A    0.0000
   1418 H          13.6740   12.7607   -7.6001 H        77      M_A    0.0000
   1419 H          13.8324   12.4487   -6.0928 H        77      M_A    0.0000
   1420 H          13.1843   11.4073   -7.0379 H        77      M_A    0.0000
   1421 Si         16.6905   13.1086   -8.0653 Si       78      M_A    0.0000
   1422 C          18.2219   13.6762   -7.8451 C.3      78      M_A    0.0000
   1423 C          16.6921   12.1433   -9.4009 C.3      78      M_A    0.0000
   1424 O          15.7208   14.1976   -8.1848 O.3      78      M_A    0.0000
   1425 H          18.5039   14.1841   -8.6019 H        78      M_A    0.0000
   1426 H          18.2642   14.2367   -7.0742 H        78      M_A    0.0000
   1427 H          18.8340   12.9537   -7.7275 H        78      M_A    0.0000
   1428 H          16.9600   12.6371  -10.1720 H        78      M_A    0.0000
   1429 H          15.8207   11.7882   -9.5592 H        78      M_A    0.0000
   1430 H          17.2990   11.4156   -9.2885 H        78      M_A    0.0000
   1431 Si         15.7897   14.9144   -9.1831 Si       79      M_A    0.0000
   1432 C          17.3427   14.8484   -9.7304 C.3      79      M_A    0.0000
   1433 C          14.8151   14.2505  -10.3342 C.3      79      M_A    0.0000
   1434 O          15.3880   16.2826   -8.8561 O.3      79      M_A    0.0000
   1435 H          17.4336   15.3397  -10.5432 H        79      M_A    0.0000
   1436 H          17.9413   15.2191   -9.0865 H        79      M_A    0.0000
   1437 H          17.6012   13.9454   -9.8988 H        79      M_A    0.0000
   1438 H          14.8828   14.7363  -11.1525 H        79      M_A    0.0000
   1439 H          13.9041   14.2641  -10.0509 H        79      M_A    0.0000
   1440 H          15.0652   13.3455  -10.5046 H        79      M_A    0.0000
   1441 Si         15.0268   17.0070   -9.7834 Si       80      M_A    0.0000
   1442 C          14.1987   16.0638  -10.8513 C.3      80      M_A    0.0000
   1443 C          13.9772   18.1154   -9.1623 C.3      80      M_A    0.0000
   1444 O          16.1835   17.6474  -10.4096 O.3      80      M_A    0.0000
   1445 H          13.8417   16.5930  -11.5603 H        80      M_A    0.0000
   1446 H          14.7727   15.4021  -11.2296 H        80      M_A    0.0000
   1447 H          13.4734   15.6217  -10.4164 H        80      M_A    0.0000
   1448 H          13.6182   18.6635   -9.8558 H        80      M_A    0.0000
   1449 H          14.4190   18.6791   -8.5319 H        80      M_A    0.0000
   1450 H          13.2512   17.6802   -8.7218 H        80      M_A    0.0000
   1451 Si         16.1265   17.8684  -11.6191 Si       81      M_A    0.0000
   1452 C          17.1656   16.8256  -12.3598 C.3      81      M_A    0.0000
   1453 C          14.5981   17.5027  -12.1151 C.3      81      M_A    0.0000
   1454 O          16.4677   19.2634  -11.8985 O.3      81      M_A    0.0000
   1455 H          17.1113   16.9143  -13.3081 H        81      M_A    0.0000
   1456 H          18.0645   17.0014  -12.0924 H        81      M_A    0.0000
   1457 H          16.9539   15.9232  -12.1332 H        81      M_A    0.0000
   1458 H          14.5202   17.5976  -13.0612 H        81      M_A    0.0000
   1459 H          13.9635   18.0829  -11.7015 H        81      M_A    0.0000
   1460 H          14.3777   16.6025  -11.8877 H        81      M_A    0.0000
   1461 Si         16.2980   19.6721  -13.0470 Si       82      M_A    0.0000
   1462 C          15.5363   18.4767  -13.8876 C.3      82      M_A    0.0000
   1463 C          15.2795   20.9650  -12.9641 C.3      82      M_A    0.0000
   1464 O          17.5797   20.0300  -13.6548 O.3      82      M_A    0.0000
   1465 H          15.3245   18.7694  -14.7705 H        82      M_A    0.0000
   1466 H          16.0934   17.7048  -13.9522 H        82      M_A    0.0000
   1467 H          14.7234   18.2272  -13.4544 H        82      M_A    0.0000
   1468 H          15.0653   21.2806  -13.8386 H        82      M_A    0.0000
   1469 H          15.6832   21.6793  -12.4771 H        82      M_A    0.0000
   1470 H          14.4658   20.7239  -12.5278 H        82      M_A    0.0000
   1471 Si         17.6017   21.0062  -14.4042 Si       83      M_A    0.0000
   1472 C          16.0418   21.4845  -14.6358 C.3      83      M_A    0.0000
   1473 C          18.3935   22.2160  -13.6136 C.3      83      M_A    0.0000
   1474 O          18.2569   20.6642  -15.6668 O.3      83      M_A    0.0000
   1475 H          16.0089   22.2800  -15.1614 H        83      M_A    0.0000
   1476 H          15.5462   20.8053  -15.0869 H        83      M_A    0.0000
   1477 H          15.6178   21.6631  -13.7998 H        83      M_A    0.0000
   1478 H          18.3822   23.0183  -14.1298 H        83      M_A    0.0000
   1479 H          19.3025   21.9738  -13.4543 H        83      M_A    0.0000
   1480 H          17.9774   22.3971  -12.7742 H        83      M_A    0.0000
   1481 Si         17.9999   19.5674  -16.1629 Si       84      M_A    0.0000
   1482 C          19.3102   19.1097  -17.0514 C.3      84      M_A    0.0000
   1483 C          17.8250   18.4953  -14.9236 C.3      84      M_A    0.0000
   1484 O          16.7911   19.6501  -16.9828 O.3      84      M_A    0.0000
   1485 H          19.1854   18.2333  -17.4070 H        84      M_A    0.0000
   1486 H          19.4496   19.7120  -17.7781 H        84      M_A    0.0000
   1487 H          20.0963   19.1016  -16.5105 H        84      M_A    0.0000
   1488 H          17.6865   17.6132  -15.2597 H        84      M_A    0.0000
   1489 H          17.0773   18.7306  -14.3796 H        84      M_A    0.0000
   1490 H          18.6061   18.4852  -14.3757 H        84      M_A    0.0000
   1491 Si         16.0112   20.5748  -16.7558 Si       85      M_A    0.0000
   1492 C          14.5577   19.9070  -16.3594 C.3      85      M_A    0.0000
   1493 C          16.5771   21.3835  -15.4361 C.3      85      M_A    0.0000
   1494 O          15.9052   21.4499  -17.9234 O.3      85      M_A    0.0000
   1495 H          13.9331   20.5844  -16.1120 H        85      M_A    0.0000
   1496 H          14.1985   19.4224  -17.0987 H        85      M_A    0.0000
   1497 H          14.6532   19.3078  -15.6229 H        85      M_A    0.0000
   1498 H          15.9711   22.0745  -15.1802 H        85      M_A    0.0000
   1499 H          17.4240   21.7808  -15.6240 H        85      M_A    0.0000
   1500 H          16.6794   20.7893  -14.6966 H        85      M_A    0.0000
   1501 Si         16.2558   22.6222  -17.7901 Si       86      M_A    0.0000
   1502 C          16.9662   22.7584  -16.3094 C.3      86      M_A    0.0000
   1503 C          17.4015   22.9267  -18.9349 C.3      86      M_A    0.0000
   1504 O          15.1053   23.5160  -17.9236 O.3      86      M_A    0.0000
   1505 H          17.3133   23.6380  -16.1830 H        86      M_A    0.0000
   1506 H          16.3342   22.5822  -15.6167 H        86      M_A    0.0000
   1507 H          17.6876   22.1395  -16.2250 H        86      M_A    0.0000
   1508 H          17.7526   23.8079  -18.8326 H        86      M_A    0.0000
   1509 H          17.0294   22.8511  -19.8102 H        86      M_A    0.0000
   1510 H          18.1243   22.3084  -18.8592 H        86      M_A    0.0000
   1511 Si         14.2196   23.4349  -17.0727 Si       87      M_A    0.0000
   1512 C          12.8189   23.0569  -17.8544 C.3      87      M_A    0.0000
   1513 C          14.6043   22.1772  -16.0797 C.3      87      M_A    0.0000
   1514 O          14.1058   24.6930  -16.3347 O.2      87      M_A    0.0000
   1515 H          12.1116   22.9202  -17.2290 H        87      M_A    0.0000
   1516 H          12.5649   23.7606  -18.4466 H        87      M_A    0.0000
   1517 H          12.9241   22.2567  -18.3635 H        87      M_A    0.0000
   1518 H          13.9133   22.0324  -15.4380 H        87      M_A    0.0000
   1519 H          15.4165   22.3556  -15.6119 H        87      M_A    0.0000
   1520 H          14.7154   21.3741  -16.5829 H        87      M_A    0.0000
   1521 Si         23.9220   -2.4167    0.1522 Si       88      M_A    0.0000
   1522 C          25.4301   -3.2609   -0.3399 C.3      88      M_A    0.0000
   1523 C          24.1671   -1.7611    1.8073 C.3      88      M_A    0.0000
   1524 O          22.6540   -3.3822    0.0807 O.3      88      M_A    0.0000
   1525 H          25.6418   -4.0430    0.3127 H        88      M_A    0.0000
   1526 H          25.3342   -3.6515   -1.2995 H        88      M_A    0.0000
   1527 H          26.2371   -2.6040   -0.3307 H        88      M_A    0.0000
   1528 H          24.3671   -2.5294    2.4797 H        88      M_A    0.0000
   1529 H          23.3167   -1.2560    2.1302 H        88      M_A    0.0000
   1530 H          24.9698   -1.0992    1.8237 H        88      M_A    0.0000
   1531 Si         22.4843   -4.1024   -1.0392 Si       89      M_A    0.0000
   1532 C          20.7772   -4.6634   -1.0633 C.3      89      M_A    0.0000
   1533 C          22.7242   -2.9931   -2.4325 C.3      89      M_A    0.0000
   1534 O          23.5087   -5.3249   -1.0737 O.3      89      M_A    0.0000
   1535 H          20.5709   -5.1711   -1.9475 H        89      M_A    0.0000
   1536 H          20.5919   -5.3054   -0.2657 H        89      M_A    0.0000
   1537 H          20.1253   -3.8553   -0.9942 H        89      M_A    0.0000
   1538 H          22.5358   -3.4855   -3.3294 H        89      M_A    0.0000
   1539 H          23.7018   -2.6375   -2.4527 H        89      M_A    0.0000
   1540 H          22.0788   -2.1794   -2.3680 H        89      M_A    0.0000
   1541 Si         23.9296   -5.8157    0.1024 Si       90      M_A    0.0000
   1542 C          25.3835   -4.8770    0.5866 C.3      90      M_A    0.0000
   1543 C          22.6367   -5.4995    1.3099 C.3      90      M_A    0.0000
   1544 O          24.2483   -7.3734   -0.0280 O.3      90      M_A    0.0000
   1545 H          25.7124   -5.1711    1.5288 H        90      M_A    0.0000
   1546 H          26.1578   -5.0260   -0.0922 H        90      M_A    0.0000
   1547 H          25.1674   -3.8597    0.6219 H        90      M_A    0.0000
   1548 H          22.9404   -5.7994    2.2587 H        90      M_A    0.0000
   1549 H          21.7705   -6.0204    1.0630 H        90      M_A    0.0000
   1550 H          22.4114   -4.4844    1.3476 H        90      M_A    0.0000
   1551 Si         24.9765   -7.9420    0.9456 Si       91      M_A    0.0000
   1552 C          24.9682   -9.7156    0.6565 C.3      91      M_A    0.0000
   1553 C          26.6660   -7.3573    0.7637 C.3      91      M_A    0.0000
   1554 O          24.3745   -7.5736    2.3764 O.3      91      M_A    0.0000
   1555 H          25.5773  -10.2019    1.3455 H        91      M_A    0.0000
   1556 H          24.0039  -10.0961    0.7453 H        91      M_A    0.0000
   1557 H          25.3215   -9.9325   -0.2979 H        91      M_A    0.0000
   1558 H          27.2907   -7.8220    1.4538 H        91      M_A    0.0000
   1559 H          26.7157   -6.3293    0.9166 H        91      M_A    0.0000
   1560 H          27.0250   -7.5664   -0.1903 H        91      M_A    0.0000
   1561 Si         25.1711   -6.9186    3.2354 Si       92      M_A    0.0000
   1562 C          26.8579   -7.0882    2.6393 C.3      92      M_A    0.0000
   1563 C          24.7274   -5.1789    3.1594 C.3      92      M_A    0.0000
   1564 O          25.0027   -7.5077    4.7084 O.3      92      M_A    0.0000
   1565 H          27.5130   -6.5392    3.2325 H        92      M_A    0.0000
   1566 H          27.1545   -8.0853    2.6596 H        92      M_A    0.0000
   1567 H          26.9374   -6.7406    1.6617 H        92      M_A    0.0000
   1568 H          25.3628   -4.6123    3.7574 H        92      M_A    0.0000
   1569 H          23.7514   -5.0356    3.4904 H        92      M_A    0.0000
   1570 H          24.7997   -4.8249    2.1836 H        92      M_A    0.0000
   1571 Si         26.1193   -7.8327    5.3785 Si       93      M_A    0.0000
   1572 C          27.2434   -8.6035    4.2073 C.3      93      M_A    0.0000
   1573 C          26.8708   -6.3015    5.9444 C.3      93      M_A    0.0000
   1574 O          25.7738   -8.8061    6.5944 O.3      93      M_A    0.0000
   1575 H          28.1561   -8.8142    4.6600 H        93      M_A    0.0000
   1576 H          26.8427   -9.4937    3.8475 H        93      M_A    0.0000
   1577 H          27.4206   -7.9717    3.3998 H        93      M_A    0.0000
   1578 H          27.7801   -6.4911    6.4130 H        93      M_A    0.0000
   1579 H          26.2475   -5.8169    6.6220 H        93      M_A    0.0000
   1580 H          27.0467   -5.6620    5.1427 H        93      M_A    0.0000
   1581 Si         26.2057  -10.0745    6.5164 Si       94      M_A    0.0000
   1582 C          25.2395  -10.8934    5.2416 C.3      94      M_A    0.0000
   1583 C          27.9174  -10.0263    5.9712 C.3      94      M_A    0.0000
   1584 O          26.0557  -10.8000    7.9293 O.3      94      M_A    0.0000
   1585 H          25.5805  -11.8646    5.0906 H        94      M_A    0.0000
   1586 H          24.2363  -10.9370    5.5143 H        94      M_A    0.0000
   1587 H          25.3137  -10.3801    4.3395 H        94      M_A    0.0000
   1588 H          28.2831  -10.9895    5.8269 H        94      M_A    0.0000
   1589 H          28.5136   -9.5520    6.6797 H        94      M_A    0.0000
   1590 H          28.0006   -9.5101    5.0716 H        94      M_A    0.0000
   1591 Si         26.4556  -12.0783    8.0165 Si       95      M_A    0.0000
   1592 C          25.4618  -13.0318    6.8622 C.3      95      M_A    0.0000
   1593 C          28.1647  -12.1450    7.4651 C.3      95      M_A    0.0000
   1594 O          26.2961  -12.6091    9.5125 O.3      95      M_A    0.0000
   1595 H          25.7779  -14.0227    6.8384 H        95      M_A    0.0000
   1596 H          24.4596  -13.0140    7.1410 H        95      M_A    0.0000
   1597 H          25.5434  -12.6427    5.9006 H        95      M_A    0.0000
   1598 H          28.5056  -13.1277    7.4469 H        95      M_A    0.0000
   1599 H          28.7767  -11.5975    8.1040 H        95      M_A    0.0000
   1600 H          28.2553  -11.7528    6.5056 H        95      M_A    0.0000
   1601 Si         26.0407  -13.9156    9.6838 Si       96      M_A    0.0000
   1602 C          24.2716  -14.1493    9.4710 C.3      96      M_A    0.0000
   1603 C          26.8809  -14.8042    8.3670 C.3      96      M_A    0.0000
   1604 O          26.5307  -14.3929   11.1251 O.3      96      M_A    0.0000
   1605 H          24.0264  -15.1589    9.5254 H        96      M_A    0.0000
   1606 H          23.7442  -13.6435   10.2115 H        96      M_A    0.0000
   1607 H          23.9640  -13.7908    8.5439 H        96      M_A    0.0000
   1608 H          26.6596  -15.8198    8.4113 H        96      M_A    0.0000
   1609 H          27.9118  -14.6894    8.4483 H        96      M_A    0.0000
   1610 H          26.5819  -14.4478    7.4362 H        96      M_A    0.0000
   1611 Si         26.4190  -15.6979   11.4183 Si       97      M_A    0.0000
   1612 C          24.6794  -16.1301   11.2899 C.3      97      M_A    0.0000
   1613 C          27.3129  -16.6106   10.1545 C.3      97      M_A    0.0000
   1614 O          26.9946  -15.9905   12.8771 O.3      97      M_A    0.0000
   1615 H          24.5434  -17.1504   11.4406 H        97      M_A    0.0000
   1616 H          24.1214  -15.6163   12.0022 H        97      M_A    0.0000
   1617 H          24.3112  -15.8900   10.3468 H        97      M_A    0.0000
   1618 H          27.2011  -17.6354   10.2946 H        97      M_A    0.0000
   1619 H          28.3277  -16.3838   10.1885 H        97      M_A    0.0000
   1620 H          26.9535  -16.3721    9.2075 H        97      M_A    0.0000
   1621 Si         26.5087  -17.0552   13.5343 Si       98      M_A    0.0000
   1622 C          25.3850  -16.4411   14.7951 C.3      98      M_A    0.0000
   1623 C          25.5513  -18.0205   12.3592 C.3      98      M_A    0.0000
   1624 O          27.6993  -17.9073   14.1681 O.3      98      M_A    0.0000
   1625 H          24.9249  -17.2310   15.2918 H        98      M_A    0.0000
   1626 H          25.8989  -15.8683   15.4954 H        98      M_A    0.0000
   1627 H          24.6424  -15.8508   14.3675 H        98      M_A    0.0000
   1628 H          25.0927  -18.8249   12.8336 H        98      M_A    0.0000
   1629 H          26.1644  -18.3910   11.6047 H        98      M_A    0.0000
   1630 H          24.8092  -17.4355   11.9235 H        98      M_A    0.0000
   1631 Si         27.3709  -18.9703   14.9188 Si       99      M_A    0.0000
   1632 C          27.5240  -18.4794   16.6408 C.3      99      M_A    0.0000
   1633 C          25.6419  -19.3405   14.5983 C.3      99      M_A    0.0000
   1634 O          28.3148  -20.2086   14.5711 O.3      99      M_A    0.0000
   1635 H          27.2138  -19.2479   17.2697 H        99      M_A    0.0000
   1636 H          28.5125  -18.2482   16.8686 H        99      M_A    0.0000
   1637 H          26.9364  -17.6433   16.8367 H        99      M_A    0.0000
   1638 H          25.3143  -20.1169   15.2085 H        99      M_A    0.0000
   1639 H          25.5063  -19.6236   13.6063 H        99      M_A    0.0000
   1640 H          25.0480  -18.5073   14.7874 H        99      M_A    0.0000
   1641 Si         28.2683  -21.2732   15.3872 Si      100      M_A    0.0000
   1642 C          29.7926  -21.2872   16.3389 C.3     100      M_A    0.0000
   1643 C          26.9036  -21.0163   16.5278 C.3     100      M_A    0.0000
   1644 O          28.0873  -22.6137   14.5414 O.3     100      M_A    0.0000
   1645 H          29.7798  -22.0559   17.0397 H       100      M_A    0.0000
   1646 H          30.6126  -21.4269   15.7140 H       100      M_A    0.0000
   1647 H          29.9151  -20.3875   16.8471 H       100      M_A    0.0000
   1648 H          26.8642  -21.7825   17.2304 H       100      M_A    0.0000
   1649 H          25.9982  -20.9942   16.0156 H       100      M_A    0.0000
   1650 H          27.0164  -20.1157   17.0366 H       100      M_A    0.0000
   1651 Si         27.8735  -23.7519   15.2199 Si      101      M_A    0.0000
   1652 C          28.9454  -25.0085   14.5117 C.3     101      M_A    0.0000
   1653 C          28.3929  -23.4709   16.9171 C.3     101      M_A    0.0000
   1654 O          26.3362  -24.1694   15.1336 O.3     101      M_A    0.0000
   1655 H          28.8705  -25.8976   15.0467 H       101      M_A    0.0000
   1656 H          28.6831  -25.1979   13.5228 H       101      M_A    0.0000
   1657 H          29.9384  -24.6986   14.5358 H       101      M_A    0.0000
   1658 H          28.3130  -24.3459   17.4742 H       101      M_A    0.0000
   1659 H          27.8007  -22.7419   17.3649 H       101      M_A    0.0000
   1660 H          29.3841  -23.1558   16.9492 H       101      M_A    0.0000
   1661 Si         25.4545  -23.4407   15.8360 Si      102      M_A    0.0000
   1662 C          26.3879  -22.2182   16.7654 C.3     102      M_A    0.0000
   1663 C          24.4177  -22.5683   14.6556 C.3     102      M_A    0.0000
   1664 O          24.5949  -24.3823   16.7949 O.2     102      M_A    0.0000
   1665 H          25.7462  -21.5788   17.2770 H       102      M_A    0.0000
   1666 H          27.0095  -22.6824   17.4587 H       102      M_A    0.0000
   1667 H          26.9763  -21.6443   16.1274 H       102      M_A    0.0000
   1668 H          23.7579  -21.9321   15.1477 H       102      M_A    0.0000
   1669 H          23.8627  -23.2415   14.0887 H       102      M_A    0.0000
   1670 H          24.9996  -21.9955   14.0105 H       102      M_A    0.0000
   1671 Si         27.1317   -2.2860   -1.0039 Si      103      M_A    0.0000
   1672 C          28.7968   -2.7225   -1.4126 C.3     103      M_A    0.0000
   1673 C          26.9476   -2.4144    0.7510 C.3     103      M_A    0.0000
   1674 O          26.0914   -3.1833   -1.7653 O.3     103      M_A    0.0000
   1675 H          29.0003   -3.6825   -1.1194 H       103      M_A    0.0000
   1676 H          28.9491   -2.6545   -2.4233 H       103      M_A    0.0000
   1677 H          29.4589   -2.0982   -0.9420 H       103      M_A    0.0000
   1678 H          27.1341   -3.3716    1.0641 H       103      M_A    0.0000
   1679 H          25.9955   -2.1624    1.0326 H       103      M_A    0.0000
   1680 H          27.6035   -1.7891    1.2289 H       103      M_A    0.0000
   1681 Si         26.5419   -4.2788   -2.3508 Si      104      M_A    0.0000
   1682 C          26.9582   -5.4286   -1.0723 C.3     104      M_A    0.0000
   1683 C          25.2074   -4.9637   -3.2890 C.3     104      M_A    0.0000
   1684 O          27.7795   -3.9443   -3.2582 O.3     104      M_A    0.0000
   1685 H          27.2505   -6.3244   -1.4739 H       104      M_A    0.0000
   1686 H          27.7256   -5.0666   -0.4983 H       104      M_A    0.0000
   1687 H          26.1514   -5.5997   -0.4647 H       104      M_A    0.0000
   1688 H          25.4836   -5.8552   -3.7111 H       104      M_A    0.0000
   1689 H          24.9291   -4.3240   -4.0391 H       104      M_A    0.0000
   1690 H          24.3947   -5.1333   -2.6889 H       104      M_A    0.0000
   1691 Si         28.8969   -4.6150   -3.0395 Si      105      M_A    0.0000
   1692 C          30.2137   -3.7109   -3.8005 C.3     105      M_A    0.0000
   1693 C          29.1762   -4.6217   -1.2925 C.3     105      M_A    0.0000
   1694 O          28.7820   -6.0715   -3.6160 O.3     105      M_A    0.0000
   1695 H          31.1161   -4.1532   -3.6028 H       105      M_A    0.0000
   1696 H          30.0867   -3.6765   -4.8163 H       105      M_A    0.0000
   1697 H          30.2443   -2.7508   -3.4446 H       105      M_A    0.0000
   1698 H          30.0691   -5.0723   -1.0718 H       105      M_A    0.0000
   1699 H          28.4297   -5.1312   -0.8105 H       105      M_A    0.0000
   1700 H          29.2034   -3.6646   -0.9282 H       105      M_A    0.0000
   1701 Si         28.2518   -6.9974   -2.8364 Si      106      M_A    0.0000
   1702 C          28.1198   -6.3087   -1.2121 C.3     106      M_A    0.0000
   1703 C          26.6159   -7.3153   -3.4304 C.3     106      M_A    0.0000
   1704 O          29.1374   -8.2946   -2.8482 O.3     106      M_A    0.0000
   1705 H          27.6505   -6.9637   -0.5798 H       106      M_A    0.0000
   1706 H          29.0483   -6.1023   -0.8320 H       106      M_A    0.0000
   1707 H          27.5769   -5.4402   -1.2320 H       106      M_A    0.0000
   1708 H          26.1328   -7.9795   -2.8184 H       106      M_A    0.0000
   1709 H          26.6462   -7.7100   -4.3751 H       106      M_A    0.0000
   1710 H          26.0680   -6.4501   -3.4577 H       106      M_A    0.0000
   1711 Si         29.9186   -8.5110   -1.8046 Si      107      M_A    0.0000
   1712 C          31.5917   -8.4625   -2.3776 C.3     107      M_A    0.0000
   1713 C          29.6858   -7.1638   -0.6816 C.3     107      M_A    0.0000
   1714 O          29.5713   -9.8903   -1.1385 O.3     107      M_A    0.0000
   1715 H          32.2442   -8.5575   -1.5938 H       107      M_A    0.0000
   1716 H          31.7681   -9.2249   -3.0386 H       107      M_A    0.0000
   1717 H          31.7859   -7.5735   -2.8482 H       107      M_A    0.0000
   1718 H          30.3208   -7.2468    0.1177 H       107      M_A    0.0000
   1719 H          28.7239   -7.1504   -0.3298 H       107      M_A    0.0000
   1720 H          29.8736   -6.2704   -1.1466 H       107      M_A    0.0000
   1721 Si         29.1465   -9.8753    0.1127 Si      108      M_A    0.0000
   1722 C          29.5951   -8.3100    0.8045 C.3     108      M_A    0.0000
   1723 C          27.3803   -9.9695    0.0724 C.3     108      M_A    0.0000
   1724 O          29.7747  -11.0688    0.9176 O.3     108      M_A    0.0000
   1725 H          29.2287   -8.2181    1.7565 H       108      M_A    0.0000
   1726 H          30.6140   -8.2107    0.8399 H       108      M_A    0.0000
   1727 H          29.2139   -7.5442    0.2408 H       108      M_A    0.0000
   1728 H          26.9934   -9.8929    1.0177 H       108      M_A    0.0000
   1729 H          27.0763  -10.8613   -0.3294 H       108      M_A    0.0000
   1730 H          26.9916   -9.2093   -0.4937 H       108      M_A    0.0000
   1731 Si         28.9572  -12.0144    1.3464 Si      109      M_A    0.0000
   1732 C          27.6654  -11.2223    2.2596 C.3     109      M_A    0.0000
   1733 C          28.2336  -12.7736   -0.0784 C.3     109      M_A    0.0000
   1734 O          29.7384  -13.0546    2.2264 O.3     109      M_A    0.0000
   1735 H          26.9639  -11.9059    2.5588 H       109      M_A    0.0000
   1736 H          28.0436  -10.7620    3.0929 H       109      M_A    0.0000
   1737 H          27.1973  -10.5164    1.6833 H       109      M_A    0.0000
   1738 H          27.5373  -13.4715    0.1993 H       109      M_A    0.0000
   1739 H          28.9511  -13.2398   -0.6415 H       109      M_A    0.0000
   1740 H          27.7673  -12.0729   -0.6625 H       109      M_A    0.0000
   1741 Si         29.5101  -14.3371    2.0043 Si      110      M_A    0.0000
   1742 C          27.8250  -14.4922    1.4880 C.3     110      M_A    0.0000
   1743 C          30.5430  -14.8322    0.6560 C.3     110      M_A    0.0000
   1744 O          29.8015  -15.1765    3.2994 O.3     110      M_A    0.0000
   1745 H          27.6128  -15.4621    1.2364 H       110      M_A    0.0000
   1746 H          27.1903  -14.2077    2.2400 H       110      M_A    0.0000
   1747 H          27.6431  -13.9034    0.6697 H       110      M_A    0.0000
   1748 H          30.3558  -15.8052    0.3967 H       110      M_A    0.0000
   1749 H          31.5317  -14.7506    0.9110 H       110      M_A    0.0000
   1750 H          30.3702  -14.2445   -0.1651 H       110      M_A    0.0000
   1751 Si         30.1540  -16.4403    3.1422 Si      111      M_A    0.0000
   1752 C          29.3250  -17.0451    1.7010 C.3     111      M_A    0.0000
   1753 C          31.8942  -16.4682    2.8242 C.3     111      M_A    0.0000
   1754 O          29.7826  -17.2744    4.4202 O.3     111      M_A    0.0000
   1755 H          29.6166  -18.0047    1.4932 H       111      M_A    0.0000
   1756 H          28.3102  -17.0392    1.8403 H       111      M_A    0.0000
   1757 H          29.5442  -16.4620    0.8878 H       111      M_A    0.0000
   1758 H          32.2095  -17.4224    2.6268 H       111      M_A    0.0000
   1759 H          32.4139  -16.1177    3.6344 H       111      M_A    0.0000
   1760 H          32.1221  -15.8831    2.0148 H       111      M_A    0.0000
   1761 Si         30.5727  -18.2833    4.7427 Si      112      M_A    0.0000
   1762 C          31.7338  -18.4881    3.4235 C.3     112      M_A    0.0000
   1763 C          31.4698  -17.8098    6.1922 C.3     112      M_A    0.0000
   1764 O          29.7272  -19.5853    4.9810 O.3     112      M_A    0.0000
   1765 H          32.4160  -19.2167    3.6534 H       112      M_A    0.0000
   1766 H          31.2534  -18.7568    2.5596 H       112      M_A    0.0000
   1767 H          32.2436  -17.6160    3.2535 H       112      M_A    0.0000
   1768 H          32.1497  -18.5321    6.4476 H       112      M_A    0.0000
   1769 H          30.8319  -17.6734    6.9819 H       112      M_A    0.0000
   1770 H          31.9788  -16.9354    6.0315 H       112      M_A    0.0000
   1771 Si         30.2592  -20.5300    5.7365 Si      113      M_A    0.0000
   1772 C          31.9897  -20.1872    5.8712 C.3     113      M_A    0.0000
   1773 C          29.5453  -20.3823    7.3486 C.3     113      M_A    0.0000
   1774 O          29.9935  -21.9455    5.1099 O.3     113      M_A    0.0000
   1775 H          32.4411  -20.8536    6.5046 H       113      M_A    0.0000
   1776 H          32.4426  -20.2552    4.9549 H       113      M_A    0.0000
   1777 H          32.1426  -19.2435    6.2395 H       113      M_A    0.0000
   1778 H          29.9743  -21.0505    7.9955 H       113      M_A    0.0000
   1779 H          28.5383  -20.5668    7.3147 H       113      M_A    0.0000
   1780 H          29.6900  -19.4393    7.7218 H       113      M_A    0.0000
   1781 Si         30.2373  -23.0032    5.8636 Si      114      M_A    0.0000
   1782 C          31.3284  -22.4897    7.1582 C.3     114      M_A    0.0000
   1783 C          28.7050  -23.4912    6.6012 C.3     114      M_A    0.0000
   1784 O          30.8612  -24.1575    5.0003 O.3     114      M_A    0.0000
   1785 H          31.4970  -23.2584    7.8138 H       114      M_A    0.0000
   1786 H          32.2291  -22.1910    6.7725 H       114      M_A    0.0000
   1787 H          30.9239  -21.7073    7.6813 H       114      M_A    0.0000
   1788 H          28.8495  -24.2691    7.2517 H       114      M_A    0.0000
   1789 H          28.0389  -23.7906    5.8829 H       114      M_A    0.0000
   1790 H          28.2917  -22.7122    7.1225 H       114      M_A    0.0000
   1791 Si         30.8548  -25.3757    5.5123 Si      115      M_A    0.0000
   1792 C          32.4442  -26.0880    5.2016 C.3     115      M_A    0.0000
   1793 C          30.6615  -25.2122    7.2633 C.3     115      M_A    0.0000
   1794 O          29.7001  -26.2297    4.8766 O.3     115      M_A    0.0000
   1795 H          32.5172  -27.0114    5.6387 H       115      M_A    0.0000
   1796 H          32.6006  -26.1942    4.1949 H       115      M_A    0.0000
   1797 H          33.1862  -25.4944    5.5844 H       115      M_A    0.0000
   1798 H          30.7181  -26.1275    7.7194 H       115      M_A    0.0000
   1799 H          29.7532  -24.7953    7.4879 H       115      M_A    0.0000
   1800 H          31.3976  -24.6157    7.6530 H       115      M_A    0.0000
   1801 Si         29.5262  -27.4579    5.3321 Si      116      M_A    0.0000
   1802 C          29.8101  -28.5671    3.9833 C.3     116      M_A    0.0000
   1803 C          30.7732  -27.7506    6.5526 C.3     116      M_A    0.0000
   1804 O          28.0813  -27.6214    5.9257 O.3     116      M_A    0.0000
   1805 H          29.7546  -29.5400    4.2986 H       116      M_A    0.0000
   1806 H          29.1113  -28.4258    3.2478 H       116      M_A    0.0000
   1807 H          30.7399  -28.4148    3.5810 H       116      M_A    0.0000
   1808 H          30.7265  -28.7160    6.8916 H       116      M_A    0.0000
   1809 H          30.6496  -27.1216    7.3516 H       116      M_A    0.0000
   1810 H          31.7062  -27.5956    6.1590 H       116      M_A    0.0000
   1811 Si         27.8840  -27.2275    7.1715 Si      117      M_A    0.0000
   1812 C          29.2191  -26.1497    7.6029 C.3     117      M_A    0.0000
   1813 C          26.3883  -26.2828    7.1966 C.3     117      M_A    0.0000
   1814 O          27.8046  -28.4684    8.1311 O.2     117      M_A    0.0000
   1815 H          29.0796  -25.7600    8.5397 H       117      M_A    0.0000
   1816 H          30.1088  -26.6571    7.5935 H       117      M_A    0.0000
   1817 H          29.2825  -25.3713    6.9399 H       117      M_A    0.0000
   1818 H          26.2229  -25.8943    8.1298 H       117      M_A    0.0000
   1819 H          25.5875  -26.8696    6.9447 H       117      M_A    0.0000
   1820 H          26.4423  -25.5048    6.5323 H       117      M_A    0.0000
   1821 Si         31.6328   -1.3561   -3.2127 Si      118      M_A    0.0000
   1822 C          33.2883   -1.7241   -3.4595 C.3     118      M_A    0.0000
   1823 C          30.8506   -2.7777   -2.6610 C.3     118      M_A    0.0000
   1824 O          30.9828   -0.8088   -4.4748 O.3     118      M_A    0.0000
   1825 H          33.3896   -2.4398   -4.1391 H       118      M_A    0.0000
   1826 H          33.7807   -0.9221   -3.7742 H       118      M_A    0.0000
   1827 H          33.7057   -2.0381   -2.6157 H       118      M_A    0.0000
   1828 H          30.9294   -3.5031   -3.3333 H       118      M_A    0.0000
   1829 H          29.8871   -2.6051   -2.4989 H       118      M_A    0.0000
   1830 H          31.2598   -3.0953   -1.8146 H       118      M_A    0.0000
   1831 Si         31.6735   -0.8272   -5.5523 Si      119      M_A    0.0000
   1832 C          30.6137   -0.4533   -6.8462 C.3     119      M_A    0.0000
   1833 C          32.8341    0.4285   -5.4383 C.3     119      M_A    0.0000
   1834 O          32.3305   -2.1870   -5.7369 O.3     119      M_A    0.0000
   1835 H          31.1142   -0.3898   -7.7005 H       119      M_A    0.0000
   1836 H          29.9192   -1.1554   -6.9423 H       119      M_A    0.0000
   1837 H          30.1620    0.4159   -6.6875 H       119      M_A    0.0000
   1838 H          33.3551    0.5001   -6.2796 H       119      M_A    0.0000
   1839 H          33.4658    0.2531   -4.6934 H       119      M_A    0.0000
   1840 H          32.3899    1.3007   -5.2749 H       119      M_A    0.0000
   1841 Si         32.0663   -2.8315   -6.8108 Si      120      M_A    0.0000
   1842 C          30.3730   -3.0933   -6.8475 C.3     120      M_A    0.0000
   1843 C          32.4742   -1.8169   -8.1304 C.3     120      M_A    0.0000
   1844 O          32.8400   -4.1411   -6.8465 O.3     120      M_A    0.0000
   1845 H          30.1058   -3.5336   -7.6955 H       120      M_A    0.0000
   1846 H          30.0933   -3.6732   -6.0924 H       120      M_A    0.0000
   1847 H          29.8850   -2.2318   -6.7797 H       120      M_A    0.0000
   1848 H          32.2264   -2.2456   -8.9902 H       120      M_A    0.0000
   1849 H          33.4495   -1.6346   -8.1417 H       120      M_A    0.0000
   1850 H          31.9933   -0.9513   -8.0669 H       120      M_A    0.0000
   1851 Si         32.6014   -4.9436   -7.8147 Si      121      M_A    0.0000
   1852 C          30.9934   -4.6567   -8.3334 C.3     121      M_A    0.0000
   1853 C          33.6553   -4.5238   -9.0993 C.3     121      M_A    0.0000
   1854 O          32.8015   -6.3847   -7.3696 O.3     121      M_A    0.0000
   1855 H          30.7789   -5.2098   -9.1286 H       121      M_A    0.0000
   1856 H          30.3492   -4.8818   -7.6130 H       121      M_A    0.0000
   1857 H          30.8705   -3.7029   -8.5782 H       121      M_A    0.0000
   1858 H          33.4653   -5.0757   -9.9016 H       121      M_A    0.0000
   1859 H          34.6010   -4.6694   -8.8364 H       121      M_A    0.0000
   1860 H          33.5413   -3.5696   -9.3467 H       121      M_A    0.0000
   1861 Si         32.7780   -7.2919   -8.2722 Si      122      M_A    0.0000
   1862 C          31.3201   -7.1007   -9.1526 C.3     122      M_A    0.0000
   1863 C          34.0847   -6.9875   -9.3385 C.3     122      M_A    0.0000
   1864 O          32.8771   -8.6717   -7.6388 O.3     122      M_A    0.0000
   1865 H          31.2827   -7.7410   -9.9097 H       122      M_A    0.0000
   1866 H          30.5354   -7.2625   -8.5673 H       122      M_A    0.0000
   1867 H          31.2530   -6.1819   -9.5215 H       122      M_A    0.0000
   1868 H          34.0726   -7.6266  -10.0972 H       122      M_A    0.0000
   1869 H          34.9511   -7.0815   -8.8641 H       122      M_A    0.0000
   1870 H          34.0268   -6.0683   -9.7080 H       122      M_A    0.0000
   1871 Si         33.2158   -9.6475   -8.3950 Si      123      M_A    0.0000
   1872 C          34.7249   -9.2476   -9.1019 C.3     123      M_A    0.0000
   1873 C          33.4472  -11.0170   -7.3909 C.3     123      M_A    0.0000
   1874 O          32.1475   -9.8958   -9.4495 O.3     123      M_A    0.0000
   1875 H          35.0654  -10.0023   -9.6487 H       123      M_A    0.0000
   1876 H          34.6356   -8.4521   -9.6882 H       123      M_A    0.0000
   1877 H          35.3970   -9.0469   -8.3999 H       123      M_A    0.0000
   1878 H          33.7760  -11.7879   -7.9220 H       123      M_A    0.0000
   1879 H          32.5948  -11.2781   -6.9554 H       123      M_A    0.0000
   1880 H          34.1150  -10.8221   -6.6833 H       123      M_A    0.0000
   1881 Si         32.5267  -10.3693  -10.5766 Si      124      M_A    0.0000
   1882 C          32.4500   -9.0946  -11.7195 C.3     124      M_A    0.0000
   1883 C          34.1680  -10.8340  -10.4106 C.3     124      M_A    0.0000
   1884 O          31.6468  -11.5428  -10.9810 O.3     124      M_A    0.0000
   1885 H          32.7977   -9.3931  -12.5995 H       124      M_A    0.0000
   1886 H          31.5133   -8.7904  -11.8403 H       124      M_A    0.0000
   1887 H          32.9950   -8.3221  -11.4180 H       124      M_A    0.0000
   1888 H          34.5314  -11.1485  -11.2786 H       124      M_A    0.0000
   1889 H          34.2573  -11.5687   -9.7496 H       124      M_A    0.0000
   1890 H          34.7187  -10.0673  -10.1047 H       124      M_A    0.0000
   1891 Si         32.1295  -12.3849  -11.8154 Si      125      M_A    0.0000
   1892 C          33.8267  -12.4230  -11.5808 C.3     125      M_A    0.0000
   1893 C          31.5034  -13.9270  -11.4067 C.3     125      M_A    0.0000
   1894 O          31.7659  -11.9881  -13.2385 O.3     125      M_A    0.0000
   1895 H          34.2442  -13.1114  -12.1606 H       125      M_A    0.0000
   1896 H          34.2290  -11.5430  -11.8009 H       125      M_A    0.0000
   1897 H          34.0439  -12.6407  -10.6373 H       125      M_A    0.0000
   1898 H          31.8995  -14.6293  -11.9849 H       125      M_A    0.0000
   1899 H          30.5182  -13.9454  -11.5228 H       125      M_A    0.0000
   1900 H          31.7129  -14.1498  -10.4627 H       125      M_A    0.0000
   1901 Si         31.7647  -12.9086  -14.1280 Si      126      M_A    0.0000
   1902 C          31.2063  -14.3448  -13.3779 C.3     126      M_A    0.0000
   1903 C          30.6259  -12.4600  -15.3275 C.3     126      M_A    0.0000
   1904 O          33.1590  -13.0829  -14.7115 O.3     126      M_A    0.0000
   1905 H          31.1236  -15.0766  -14.0426 H       126      M_A    0.0000
   1906 H          31.8367  -14.6359  -12.6691 H       126      M_A    0.0000
   1907 H          30.3153  -14.1997  -12.9658 H       126      M_A    0.0000
   1908 H          30.5379  -13.1746  -16.0102 H       126      M_A    0.0000
   1909 H          30.9097  -11.6255  -15.7832 H       126      M_A    0.0000
   1910 H          29.7329  -12.3087  -14.9220 H       126      M_A    0.0000
   1911 Si         33.5545  -14.2758  -14.9541 Si      127      M_A    0.0000
   1912 C          35.2242  -14.3488  -14.5748 C.3     127      M_A    0.0000
   1913 C          32.7211  -15.3199  -13.8805 C.3     127      M_A    0.0000
   1914 O          33.2907  -14.6357  -16.4087 O.3     127      M_A    0.0000
   1915 H          35.5670  -15.2735  -14.6833 H       127      M_A    0.0000
   1916 H          35.7440  -13.7506  -15.1718 H       127      M_A    0.0000
   1917 H          35.3814  -14.0693  -13.6356 H       127      M_A    0.0000
   1918 H          33.0409  -16.2535  -13.9827 H       127      M_A    0.0000
   1919 H          31.7460  -15.3017  -14.0630 H       127      M_A    0.0000
   1920 H          32.8699  -15.0437  -12.9391 H       127      M_A    0.0000
   1921 Si         33.8680  -15.6788  -16.8747 Si      128      M_A    0.0000
   1922 C          35.3859  -15.1875  -17.5005 C.3     128      M_A    0.0000
   1923 C          34.1554  -16.7367  -15.5573 C.3     128      M_A    0.0000
   1924 O          33.0023  -16.3306  -17.9426 O.3     128      M_A    0.0000
   1925 H          35.9042  -15.9724  -17.8163 H       128      M_A    0.0000
   1926 H          35.2636  -14.5658  -18.2642 H       128      M_A    0.0000
   1927 H          35.9188  -14.7263  -16.8020 H       128      M_A    0.0000
   1928 H          34.6623  -17.5359  -15.8553 H       128      M_A    0.0000
   1929 H          33.2981  -17.0403  -15.1604 H       128      M_A    0.0000
   1930 H          34.6842  -16.2806  -14.8523 H       128      M_A    0.0000
   1931 Si         33.5921  -16.8049  -18.9749 Si      129      M_A    0.0000
   1932 C          35.2765  -16.5841  -18.7489 C.3     129      M_A    0.0000
   1933 C          33.2792  -18.4895  -19.0146 C.3     129      M_A    0.0000
   1934 O          33.0964  -16.1097  -20.2341 O.3     129      M_A    0.0000
   1935 H          35.7858  -16.9955  -19.4944 H       129      M_A    0.0000
   1936 H          35.4999  -15.6180  -18.7133 H       129      M_A    0.0000
   1937 H          35.5734  -17.0068  -17.9016 H       129      M_A    0.0000
   1938 H          33.7702  -18.9184  -19.7625 H       129      M_A    0.0000
   1939 H          32.3098  -18.6613  -19.1377 H       129      M_A    0.0000
   1940 H          33.5695  -18.9185  -18.1682 H       129      M_A    0.0000
   1941 Si         32.6085  -16.8434  -21.1626 Si      130      M_A    0.0000
   1942 C          32.7723  -15.9822  -22.6352 C.3     130      M_A    0.0000
   1943 C          33.5770  -18.2537  -21.2631 C.3     130      M_A    0.0000
   1944 O          31.1546  -17.1782  -20.8641 O.3     130      M_A    0.0000
   1945 H          32.4676  -16.5364  -23.3997 H       130      M_A    0.0000
   1946 H          32.2300  -15.1515  -22.6156 H       130      M_A    0.0000
   1947 H          33.7205  -15.7350  -22.7914 H       130      M_A    0.0000
   1948 H          33.2797  -18.8288  -22.0150 H       130      M_A    0.0000
   1949 H          33.5154  -18.7796  -20.4239 H       130      M_A    0.0000
   1950 H          34.5280  -18.0141  -21.4147 H       130      M_A    0.0000
   1951 Si         30.9225  -18.0632  -19.9690 Si      131      M_A    0.0000
   1952 C          32.4366  -18.5768  -19.3519 C.3     131      M_A    0.0000
   1953 C          30.0658  -17.2948  -18.6991 C.3     131      M_A    0.0000
   1954 O          30.1332  -19.2212  -20.5614 O.3     131      M_A    0.0000
   1955 H          32.3102  -19.2181  -18.6055 H       131      M_A    0.0000
   1956 H          32.9689  -19.0228  -20.0606 H       131      M_A    0.0000
   1957 H          32.9548  -17.8028  -19.0097 H       131      M_A    0.0000
   1958 H          29.9176  -17.9243  -17.9467 H       131      M_A    0.0000
   1959 H          29.1822  -16.9751  -19.0179 H       131      M_A    0.0000
   1960 H          30.5761  -16.5165  -18.3547 H       131      M_A    0.0000
   1961 Si         30.7960  -20.1902  -21.0713 Si      132      M_A    0.0000
   1962 C          30.1935  -20.4455  -22.6552 C.3     132      M_A    0.0000
   1963 C          32.4278  -19.6824  -21.2006 C.3     132      M_A    0.0000
   1964 O          30.6602  -21.4363  -20.2089 O.3     132      M_A    0.0000
   1965 H          30.7198  -21.1461  -23.1205 H       132      M_A    0.0000
   1966 H          29.2450  -20.7354  -22.6250 H       132      M_A    0.0000
   1967 H          30.2502  -19.6109  -23.1890 H       132      M_A    0.0000
   1968 H          32.9747  -20.3760  -21.6525 H       132      M_A    0.0000
   1969 H          32.8137  -19.5166  -20.3017 H       132      M_A    0.0000
   1970 H          32.4920  -18.8453  -21.7295 H       132      M_A    0.0000
   1971 Si         31.3081  -21.4663  -19.1054 Si      133      M_A    0.0000
   1972 C          32.0866  -19.9499  -18.9273 C.3     133      M_A    0.0000
   1973 C          30.1610  -21.6247  -17.8421 C.3     133      M_A    0.0000
   1974 O          32.3057  -22.6151  -19.1082 O.2     133      M_A    0.0000
   1975 H          32.5516  -19.8966  -18.0524 H       133      M_A    0.0000
   1976 H          32.7569  -19.8154  -19.6464 H       133      M_A    0.0000
   1977 H          31.4257  -19.2110  -18.9713 H       133      M_A    0.0000
   1978 H          30.6083  -21.5868  -16.9573 H       133      M_A    0.0000
   1979 H          29.6812  -22.4903  -17.9131 H       133      M_A    0.0000
   1980 H          29.4937  -20.8913  -17.8826 H       133      M_A    0.0000
   1981 Si         36.4305   -1.1168   -3.2169 Si      134      M_A    0.0000
   1982 C          38.0978   -1.5484   -3.3388 C.3     134      M_A    0.0000
   1983 C          35.6021   -2.4064   -2.4222 C.3     134      M_A    0.0000
   1984 O          35.8212   -0.8112   -4.5898 O.3     134      M_A    0.0000
   1985 H          38.2059   -2.3883   -3.8697 H       134      M_A    0.0000
   1986 H          38.6167   -0.8222   -3.7890 H       134      M_A    0.0000
   1987 H          38.4888   -1.7011   -2.4315 H       134      M_A    0.0000
   1988 H          35.6873   -3.2542   -2.9446 H       134      M_A    0.0000
   1989 H          34.6304   -2.1927   -2.3249 H       134      M_A    0.0000
   1990 H          35.9847   -2.5620   -1.5118 H       134      M_A    0.0000
   1991 Si         36.5501   -1.0364   -5.6294 Si      135      M_A    0.0000
   1992 C          35.5623   -0.7682   -7.0199 C.3     135      M_A    0.0000
   1993 C          37.8141    0.1396   -5.6378 C.3     135      M_A    0.0000
   1994 O          37.1040   -2.4651   -5.5934 O.3     135      M_A    0.0000
   1995 H          36.0995   -0.8654   -7.8572 H       135      M_A    0.0000
   1996 H          34.8110   -1.4269   -7.0494 H       135      M_A    0.0000
   1997 H          35.1751    0.1533   -7.0037 H       135      M_A    0.0000
   1998 H          38.3720    0.0508   -6.4624 H       135      M_A    0.0000
   1999 H          38.4076    0.0232   -4.8419 H       135      M_A    0.0000
   2000 H          37.4344    1.0642   -5.6171 H       135      M_A    0.0000
   2001 Si         36.4969   -3.3215   -4.8444 Si      136      M_A    0.0000
   2002 C          36.5163   -2.7027   -3.2327 C.3     136      M_A    0.0000
   2003 C          34.8536   -3.3924   -5.3692 C.3     136      M_A    0.0000
   2004 O          37.1816   -4.6898   -4.9356 O.3     136      M_A    0.0000
   2005 H          35.9986   -3.2994   -2.6204 H       136      M_A    0.0000
   2006 H          37.4539   -2.6390   -2.8921 H       136      M_A    0.0000
   2007 H          36.1053   -1.7920   -3.2007 H       136      M_A    0.0000
   2008 H          34.3206   -3.9955   -4.7765 H       136      M_A    0.0000
   2009 H          34.7982   -3.7406   -6.3046 H       136      M_A    0.0000
   2010 H          34.4370   -2.4840   -5.3444 H       136      M_A    0.0000
   2011 Si         36.5423   -5.7090   -4.4715 Si      137      M_A    0.0000
   2012 C          35.7588   -5.2077   -3.0169 C.3     137      M_A    0.0000
   2013 C          35.3214   -6.1194   -5.6212 C.3     137      M_A    0.0000
   2014 O          37.5052   -6.8757   -4.2248 O.3     137      M_A    0.0000
   2015 H          35.1929   -5.9453   -2.6498 H       137      M_A    0.0000
   2016 H          36.4332   -4.9536   -2.3241 H       137      M_A    0.0000
   2017 H          35.1690   -4.4191   -3.1889 H       137      M_A    0.0000
   2018 H          34.7514   -6.8654   -5.2781 H       137      M_A    0.0000
   2019 H          35.7345   -6.4098   -6.4839 H       137      M_A    0.0000
   2020 H          34.7301   -5.3338   -5.8019 H       137      M_A    0.0000
   2021 Si         38.5482   -6.9580   -4.9786 Si      138      M_A    0.0000
   2022 C          38.2835   -5.9292   -6.3396 C.3     138      M_A    0.0000
   2023 C          39.8827   -6.3264   -4.0836 C.3     138      M_A    0.0000
   2024 O          38.7861   -8.4114   -5.4032 O.3     138      M_A    0.0000
   2025 H          39.0932   -5.9050   -6.9252 H       138      M_A    0.0000
   2026 H          37.5114   -6.2572   -6.8832 H       138      M_A    0.0000
   2027 H          38.0870   -4.9954   -6.0417 H       138      M_A    0.0000
   2028 H          40.7071   -6.3059   -4.6485 H       138      M_A    0.0000
   2029 H          40.0657   -6.8917   -3.2798 H       138      M_A    0.0000
   2030 H          39.6915   -5.3939   -3.7781 H       138      M_A    0.0000
   2031 Si         39.7842   -8.6489   -6.1845 Si      139      M_A    0.0000
   2032 C          40.4329   -7.1245   -6.6707 C.3     139      M_A    0.0000
   2033 C          40.9854   -9.4673   -5.2527 C.3     139      M_A    0.0000
   2034 O          39.3328   -9.4838   -7.3880 O.3     139      M_A    0.0000
   2035 H          41.2533   -7.2525   -7.2271 H       139      M_A    0.0000
   2036 H          39.7636   -6.6135   -7.2093 H       139      M_A    0.0000
   2037 H          40.6810   -6.5770   -5.8718 H       139      M_A    0.0000
   2038 H          41.8108   -9.6169   -5.7961 H       139      M_A    0.0000
   2039 H          40.6460  -10.3556   -4.9444 H       139      M_A    0.0000
   2040 H          41.2353   -8.9276   -4.4491 H       139      M_A    0.0000
   2041 Si         39.6815  -10.7249   -7.4176 Si      140      M_A    0.0000
   2042 C          41.4035  -10.7743   -7.5316 C.3     140      M_A    0.0000
   2043 C          39.2263  -11.4248   -5.9064 C.3     140      M_A    0.0000
   2044 O          39.0135  -11.4387   -8.5981 O.3     140      M_A    0.0000
   2045 H          41.7320  -11.7175   -7.4912 H       140      M_A    0.0000
   2046 H          41.7104  -10.3706   -8.3930 H       140      M_A    0.0000
   2047 H          41.8206  -10.2670   -6.7778 H       140      M_A    0.0000
   2048 H          39.5347  -12.3740   -5.8510 H       140      M_A    0.0000
   2049 H          38.2328  -11.4096   -5.7972 H       140      M_A    0.0000
   2050 H          39.6361  -10.9197   -5.1472 H       140      M_A    0.0000
   2051 Si         38.2919  -12.4752   -8.3377 Si      141      M_A    0.0000
   2052 C          38.0609  -12.5264   -6.6274 C.3     141      M_A    0.0000
   2053 C          36.7512  -12.2302   -9.0773 C.3     141      M_A    0.0000
   2054 O          38.9754  -13.7451   -8.8567 O.3     141      M_A    0.0000
   2055 H          37.4503  -13.2772   -6.3772 H       141      M_A    0.0000
   2056 H          38.9337  -12.6607   -6.1589 H       141      M_A    0.0000
   2057 H          37.6546  -11.6731   -6.3017 H       141      M_A    0.0000
   2058 H          36.1286  -12.9782   -8.8495 H       141      M_A    0.0000
   2059 H          36.8417  -12.1875  -10.0719 H       141      M_A    0.0000
   2060 H          36.3405  -11.3758   -8.7597 H       141      M_A    0.0000
   2061 Si         38.6629  -14.1495  -10.0406 Si      142      M_A    0.0000
   2062 C          37.5473  -15.4550   -9.8621 C.3     142      M_A    0.0000
   2063 C          37.8431  -12.8510  -10.8296 C.3     142      M_A    0.0000
   2064 O          39.9193  -14.5771  -10.8073 O.3     142      M_A    0.0000
   2065 H          37.2207  -15.7635  -10.7550 H       142      M_A    0.0000
   2066 H          37.9821  -16.2283   -9.4014 H       142      M_A    0.0000
   2067 H          36.7554  -15.1697   -9.3227 H       142      M_A    0.0000
   2068 H          37.5192  -13.1355  -11.7314 H       142      M_A    0.0000
   2069 H          38.4546  -12.0690  -10.9468 H       142      M_A    0.0000
   2070 H          37.0522  -12.5569  -10.2935 H       142      M_A    0.0000
   2071 Si         39.8331  -15.6215  -11.5587 Si      143      M_A    0.0000
   2072 C          40.2581  -16.9883  -10.5931 C.3     143      M_A    0.0000
   2073 C          38.1783  -15.7889  -12.0216 C.3     143      M_A    0.0000
   2074 O          40.7520  -15.4794  -12.7772 O.3     143      M_A    0.0000
   2075 H          40.1433  -17.8349  -11.1117 H       143      M_A    0.0000
   2076 H          41.2109  -16.9268  -10.2972 H       143      M_A    0.0000
   2077 H          39.6771  -17.0395   -9.7811 H       143      M_A    0.0000
   2078 H          38.0444  -16.6245  -12.5534 H       143      M_A    0.0000
   2079 H          37.8890  -15.0111  -12.5789 H       143      M_A    0.0000
   2080 H          37.5903  -15.8361  -11.2144 H       143      M_A    0.0000
   2081 Si         41.1621  -16.5623  -13.3447 Si      144      M_A    0.0000
   2082 C          42.4896  -16.1396  -14.3644 C.3     144      M_A    0.0000
   2083 C          41.7545  -17.6038  -12.1016 C.3     144      M_A    0.0000
   2084 O          40.0229  -17.2140  -14.1364 O.3     144      M_A    0.0000
   2085 H          42.8888  -16.9566  -14.7793 H       144      M_A    0.0000
   2086 H          42.1895  -15.5290  -15.0968 H       144      M_A    0.0000
   2087 H          43.2033  -15.6769  -13.8390 H       144      M_A    0.0000
   2088 H          42.1470  -18.4343  -12.4956 H       144      M_A    0.0000
   2089 H          41.0154  -17.8677  -11.4825 H       144      M_A    0.0000
   2090 H          42.4657  -17.1460  -11.5686 H       144      M_A    0.0000
   2091 Si         39.9181  -18.4982  -14.0835 Si      145      M_A    0.0000
   2092 C          41.0851  -19.0645  -12.9441 C.3     145      M_A    0.0000
   2093 C          38.3479  -18.8626  -13.4650 C.3     145      M_A    0.0000
   2094 O          40.1373  -19.1090  -15.4720 O.3     145      M_A    0.0000
   2095 H          41.0009  -20.0521  -12.8154 H       145      M_A    0.0000
   2096 H          42.0118  -18.8662  -13.2622 H       145      M_A    0.0000
   2097 H          40.9536  -18.6228  -12.0569 H       145      M_A    0.0000
   2098 H          38.2384  -19.8483  -13.3411 H       145      M_A    0.0000
   2099 H          37.6397  -18.5437  -14.0943 H       145      M_A    0.0000
   2100 H          38.2072  -18.4202  -12.5796 H       145      M_A    0.0000
   2101 Si         39.4686  -18.6104  -16.4554 Si      146      M_A    0.0000
   2102 C          37.7965  -18.6822  -16.0314 C.3     146      M_A    0.0000
   2103 C          39.9138  -16.9478  -16.5916 C.3     146      M_A    0.0000
   2104 O          39.7609  -19.3840  -17.7459 O.3     146      M_A    0.0000
   2105 H          37.2361  -18.2459  -16.7346 H       146      M_A    0.0000
   2106 H          37.4988  -19.6317  -15.9355 H       146      M_A    0.0000
   2107 H          37.6327  -18.2101  -15.1656 H       146      M_A    0.0000
   2108 H          39.3728  -16.4956  -17.3000 H       146      M_A    0.0000
   2109 H          40.8806  -16.8614  -16.8304 H       146      M_A    0.0000
   2110 H          39.7570  -16.4699  -15.7277 H       146      M_A    0.0000
   2111 Si         39.1781  -20.5236  -17.9033 Si      147      M_A    0.0000
   2112 C          40.3005  -21.5725  -18.6913 C.3     147      M_A    0.0000
   2113 C          38.8630  -21.1634  -16.3310 C.3     147      M_A    0.0000
   2114 O          37.8900  -20.3561  -18.7169 O.3     147      M_A    0.0000
   2115 H          39.9206  -22.4929  -18.7784 H       147      M_A    0.0000
   2116 H          40.5160  -21.2328  -19.6064 H       147      M_A    0.0000
   2117 H          41.1503  -21.6348  -18.1685 H       147      M_A    0.0000
   2118 H          38.4698  -22.0800  -16.3964 H       147      M_A    0.0000
   2119 H          38.2199  -20.5794  -15.8364 H       147      M_A    0.0000
   2120 H          39.7080  -21.2244  -15.8003 H       147      M_A    0.0000
   2121 Si         38.0076  -20.1435  -19.9833 Si      148      M_A    0.0000
   2122 C          37.5964  -18.4913  -20.2694 C.3     148      M_A    0.0000
   2123 C          39.6719  -20.3574  -20.3899 C.3     148      M_A    0.0000
   2124 O          37.1034  -21.0983  -20.7708 O.2     148      M_A    0.0000
   2125 H          37.7353  -18.2554  -21.2307 H       148      M_A    0.0000
   2126 H          36.6384  -18.3227  -20.0391 H       148      M_A    0.0000
   2127 H          38.1667  -17.8858  -19.7149 H       148      M_A    0.0000
   2128 H          39.8299  -20.1387  -21.3524 H       148      M_A    0.0000
   2129 H          39.9535  -21.3034  -20.2315 H       148      M_A    0.0000
   2130 H          40.2491  -19.7582  -19.8358 H       148      M_A    0.0000
   2131 Si         39.0141    2.4324   -3.3131 Si      149      M_A    0.0000
   2132 C          40.4744    2.4637   -4.2824 C.3     149      M_A    0.0000
   2133 C          37.6855    1.9504   -4.3502 C.3     149      M_A    0.0000
   2134 O          38.7448    3.8054   -2.6317 O.3     149      M_A    0.0000
   2135 H          40.3838    3.1287   -5.0436 H       149      M_A    0.0000
   2136 H          41.2727    2.7326   -3.7162 H       149      M_A    0.0000
   2137 H          40.6573    1.5488   -4.6822 H       149      M_A    0.0000
   2138 H          37.5693    2.6107   -5.1121 H       149      M_A    0.0000
   2139 H          36.8182    1.9127   -3.8245 H       149      M_A    0.0000
   2140 H          37.8591    1.0338   -4.7502 H       149      M_A    0.0000
   2141 Si         38.1262    4.7198   -3.3355 Si      150      M_A    0.0000
   2142 C          36.7109    3.9667   -4.0445 C.3     150      M_A    0.0000
   2143 C          37.5802    5.9580   -2.2211 C.3     150      M_A    0.0000
   2144 O          39.0758    5.3010   -4.4228 O.3     150      M_A    0.0000
   2145 H          36.1563    4.6514   -4.5481 H       150      M_A    0.0000
   2146 H          36.9833    3.2358   -4.6938 H       150      M_A    0.0000
   2147 H          36.1266    3.5551   -3.3238 H       150      M_A    0.0000
   2148 H          37.0336    6.6610   -2.7079 H       150      M_A    0.0000
   2149 H          38.3719    6.4164   -1.7814 H       150      M_A    0.0000
   2150 H          36.9988    5.5531   -1.4943 H       150      M_A    0.0000
   2151 Si         38.6151    6.2686   -5.1750 Si      151      M_A    0.0000
   2152 C          37.1390    5.6919   -5.9244 C.3     151      M_A    0.0000
   2153 C          38.2000    7.6026   -4.1163 C.3     151      M_A    0.0000
   2154 O          39.6763    6.6826   -6.2353 O.3     151      M_A    0.0000
   2155 H          36.7026    6.4294   -6.4681 H       151      M_A    0.0000
   2156 H          37.3344    4.9113   -6.5430 H       151      M_A    0.0000
   2157 H          36.4766    5.3852   -5.2191 H       151      M_A    0.0000
   2158 H          37.7733    8.3577   -4.6434 H       151      M_A    0.0000
   2159 H          39.0290    7.9633   -3.6550 H       151      M_A    0.0000
   2160 H          37.5411    7.3023   -3.4049 H       151      M_A    0.0000
   2161 Si         39.2434    7.2210   -7.3474 Si      152      M_A    0.0000
   2162 C          40.1686    6.5225   -8.6624 C.3     152      M_A    0.0000
   2163 C          37.5699    6.7384   -7.5462 C.3     152      M_A    0.0000
   2164 O          39.3946    8.7689   -7.2947 O.3     152      M_A    0.0000
   2165 H          39.8262    6.8570   -9.5573 H       152      M_A    0.0000
   2166 H          41.1488    6.7728   -8.5812 H       152      M_A    0.0000
   2167 H          40.0934    5.5103   -8.6536 H       152      M_A    0.0000
   2168 H          37.2036    7.0748   -8.4308 H       152      M_A    0.0000
   2169 H          36.9980    7.1176   -6.7983 H       152      M_A    0.0000
   2170 H          37.4860    5.7269   -7.5337 H       152      M_A    0.0000
   2171 Si         38.8807    9.4617   -8.2797 Si      153      M_A    0.0000
   2172 C          38.9096    8.4440   -9.7067 C.3     153      M_A    0.0000
   2173 C          37.2051    9.7821   -7.8764 C.3     153      M_A    0.0000
   2174 O          39.6840   10.7773   -8.4934 O.3     153      M_A    0.0000
   2175 H          38.4592    8.9104  -10.4874 H       153      M_A    0.0000
   2176 H          39.8653    8.2279   -9.9715 H       153      M_A    0.0000
   2177 H          38.4191    7.5724   -9.5337 H       153      M_A    0.0000
   2178 H          36.7390   10.2608   -8.6402 H       153      M_A    0.0000
   2179 H          37.1428   10.3652   -7.0480 H       153      M_A    0.0000
   2180 H          36.7089    8.9149   -7.6972 H       153      M_A    0.0000
   2181 Si         39.5141   11.4137   -9.6250 Si      154      M_A    0.0000
   2182 C          41.0076   12.2604   -9.9792 C.3     154      M_A    0.0000
   2183 C          39.2662   10.2072  -10.8723 C.3     154      M_A    0.0000
   2184 O          38.3078   12.3914   -9.5208 O.3     154      M_A    0.0000
   2185 H          40.9532   12.7179  -10.8834 H       154      M_A    0.0000
   2186 H          41.1932   12.9665   -9.2741 H       154      M_A    0.0000
   2187 H          41.7890   11.6129   -9.9992 H       154      M_A    0.0000
   2188 H          39.1958   10.6458  -11.7848 H       154      M_A    0.0000
   2189 H          38.4118    9.6870  -10.7008 H       154      M_A    0.0000
   2190 H          40.0418    9.5528  -10.8954 H       154      M_A    0.0000
   2191 Si         38.0614   13.1613  -10.5507 Si      155      M_A    0.0000
   2192 C          37.6012   14.7349   -9.9303 C.3     155      M_A    0.0000
   2193 C          39.5621   13.3461  -11.4376 C.3     155      M_A    0.0000
   2194 O          36.9416   12.5404  -11.4354 O.3     155      M_A    0.0000
   2195 H          37.4635   15.3925  -10.6908 H       155      M_A    0.0000
   2196 H          36.7369   14.6713   -9.4021 H       155      M_A    0.0000
   2197 H          38.3242   15.1037   -9.3207 H       155      M_A    0.0000
   2198 H          39.4425   13.9909  -12.2120 H       155      M_A    0.0000
   2199 H          39.8690   12.4530  -11.8096 H       155      M_A    0.0000
   2200 H          40.2916   13.7102  -10.8330 H       155      M_A    0.0000
   2201 Si         37.1479   12.4911  -12.7274 Si      156      M_A    0.0000
   2202 C          38.7803   11.9020  -12.9751 C.3     156      M_A    0.0000
   2203 C          36.0381   11.3070  -13.3902 C.3     156      M_A    0.0000
   2204 O          36.9393   13.8961  -13.3632 O.3     156      M_A    0.0000
   2205 H          38.9699   11.7803  -13.9646 H       156      M_A    0.0000
   2206 H          39.4572   12.5575  -12.5979 H       156      M_A    0.0000
   2207 H          38.9101   11.0060  -12.5160 H       156      M_A    0.0000
   2208 H          36.2026   11.1799  -14.3835 H       156      M_A    0.0000
   2209 H          35.0772   11.6072  -13.2609 H       156      M_A    0.0000
   2210 H          36.1587   10.4091  -12.9325 H       156      M_A    0.0000
   2211 Si         37.6534   14.1952  -14.4191 Si      157      M_A    0.0000
   2212 C          39.3246   13.8214  -14.0442 C.3     157      M_A    0.0000
   2213 C          37.1390   13.1350  -15.7169 C.3     157      M_A    0.0000
   2214 O          37.4677   15.6947  -14.7916 O.3     157      M_A    0.0000
   2215 H          39.9151   13.9722  -14.8557 H       157      M_A    0.0000
   2216 H          39.6614   14.4107  -13.2896 H       157      M_A    0.0000
   2217 H          39.4186   12.8512  -13.7609 H       157      M_A    0.0000
   2218 H          37.7094   13.2795  -16.5437 H       157      M_A    0.0000
   2219 H          36.1704   13.3144  -15.9613 H       157      M_A    0.0000
   2220 H          37.2257   12.1625  -15.4392 H       157      M_A    0.0000
   2221 Si         38.1039   16.1402  -15.8457 Si      158      M_A    0.0000
   2222 C          39.7717   16.4075  -15.3766 C.3     158      M_A    0.0000
   2223 C          38.0771   14.8673  -17.0506 C.3     158      M_A    0.0000
   2224 O          37.4363   17.4446  -16.3700 O.3     158      M_A    0.0000
   2225 H          40.3270   16.6908  -16.1774 H       158      M_A    0.0000
   2226 H          39.8318   17.1355  -14.6720 H       158      M_A    0.0000
   2227 H          40.1762   15.5578  -14.9963 H       158      M_A    0.0000
   2228 H          38.6169   15.1365  -17.8667 H       158      M_A    0.0000
   2229 H          37.1252   14.6755  -17.3458 H       158      M_A    0.0000
   2230 H          38.4760   14.0125  -16.6759 H       158      M_A    0.0000
   2231 Si         37.4757   17.6691  -17.6593 Si      159      M_A    0.0000
   2232 C          38.3892   19.1447  -17.9064 C.3     159      M_A    0.0000
   2233 C          38.3671   16.3504  -18.3937 C.3     159      M_A    0.0000
   2234 O          36.0337   17.7807  -18.2339 O.3     159      M_A    0.0000
   2235 H          38.5079   19.3297  -18.8972 H       159      M_A    0.0000
   2236 H          37.9095   19.9355  -17.4887 H       159      M_A    0.0000
   2237 H          39.3102   19.0690  -17.4866 H       159      M_A    0.0000
   2238 H          38.4856   16.5097  -19.3889 H       159      M_A    0.0000
   2239 H          37.8742   15.4723  -18.2669 H       159      M_A    0.0000
   2240 H          39.2881   16.2653  -17.9754 H       159      M_A    0.0000
   2241 Si         35.2074   18.6051  -17.6408 Si      160      M_A    0.0000
   2242 C          33.6230   18.3586  -18.3491 C.3     160      M_A    0.0000
   2243 C          35.1247   18.1396  -15.9527 C.3     160      M_A    0.0000
   2244 O          35.6927   20.0739  -17.8106 O.3     160      M_A    0.0000
   2245 H          32.9281   18.9279  -17.8770 H       160      M_A    0.0000
   2246 H          33.6286   18.6107  -19.3323 H       160      M_A    0.0000
   2247 H          33.3429   17.3864  -18.2681 H       160      M_A    0.0000
   2248 H          34.4436   18.7069  -15.4586 H       160      M_A    0.0000
   2249 H          36.0273   18.2608  -15.5046 H       160      M_A    0.0000
   2250 H          34.8497   17.1666  -15.8637 H       160      M_A    0.0000
   2251 Si         35.9528   20.7555  -16.7234 Si      161      M_A    0.0000
   2252 C          34.4332   21.3999  -16.1331 C.3     161      M_A    0.0000
   2253 C          36.5624   19.6254  -15.5300 C.3     161      M_A    0.0000
   2254 O          36.9798   21.8853  -17.0250 O.3     161      M_A    0.0000
   2255 H          34.5686   21.8829  -15.2509 H       161      M_A    0.0000
   2256 H          34.0408   22.0563  -16.8003 H       161      M_A    0.0000
   2257 H          33.7623   20.6528  -15.9845 H       161      M_A    0.0000
   2258 H          36.7174   20.0922  -14.6423 H       161      M_A    0.0000
   2259 H          37.4417   19.2221  -15.8370 H       161      M_A    0.0000
   2260 H          35.8986   18.8724  -15.3794 H       161      M_A    0.0000
   2261 Si         36.6215   22.8199  -17.8690 Si      162      M_A    0.0000
   2262 C          36.9411   22.2178  -19.4840 C.3     162      M_A    0.0000
   2263 C          34.8900   23.0383  -17.7049 C.3     162      M_A    0.0000
   2264 O          37.3986   24.1370  -17.5805 O.3     162      M_A    0.0000
   2265 H          36.6180   22.8794  -20.1825 H       162      M_A    0.0000
   2266 H          37.9362   22.0704  -19.6194 H       162      M_A    0.0000
   2267 H          36.4617   21.3365  -19.6379 H       162      M_A    0.0000
   2268 H          34.5479   23.7074  -18.3869 H       162      M_A    0.0000
   2269 H          34.6599   23.3808  -16.7776 H       162      M_A    0.0000
   2270 H          34.4037   22.1597  -17.8528 H       162      M_A    0.0000
   2271 Si         38.4337   24.4074  -18.3353 Si      163      M_A    0.0000
   2272 C          38.0129   23.9662  -19.9789 C.3     163      M_A    0.0000
   2273 C          38.6791   26.1424  -18.2859 C.3     163      M_A    0.0000
   2274 O          39.6870   23.6333  -17.8335 O.2     163      M_A    0.0000
   2275 H          38.7590   24.2186  -20.6188 H       163      M_A    0.0000
   2276 H          37.8548   22.9663  -20.0505 H       163      M_A    0.0000
   2277 H          37.1686   24.4471  -20.2726 H       163      M_A    0.0000
   2278 H          39.4314   26.4148  -18.9102 H       163      M_A    0.0000
   2279 H          38.9189   26.4421  -17.3463 H       163      M_A    0.0000
   2280 H          37.8371   26.6305  -18.5740 H       163      M_A    0.0000
   2281 Si         49.7279    0.9691   -3.8986 Si      164      M_A    0.0000
   2282 C          51.4268    0.5385   -4.3016 C.3     164      M_A    0.0000
   2283 C          48.6419   -0.0645   -4.8918 C.3     164      M_A    0.0000
   2284 O          49.4406    2.5224   -4.1300 O.3     164      M_A    0.0000
   2285 H          51.6181    0.7072   -5.3109 H       164      M_A    0.0000
   2286 H          52.0921    1.1109   -3.7414 H       164      M_A    0.0000
   2287 H          51.6071   -0.4673   -4.1011 H       164      M_A    0.0000
   2288 H          48.8077    0.0987   -5.9065 H       164      M_A    0.0000
   2289 H          47.6440    0.1478   -4.6841 H       164      M_A    0.0000
   2290 H          48.8130   -1.0723   -4.6933 H       164      M_A    0.0000
   2291 Si         49.2872    2.9440   -5.3960 Si      165      M_A    0.0000
   2292 C          47.5993    2.5653   -5.8877 C.3     165      M_A    0.0000
   2293 C          49.4775    4.7322   -5.3936 C.3     165      M_A    0.0000
   2294 O          50.3540    2.2370   -6.3504 O.3     165      M_A    0.0000
   2295 H          47.4038    2.9342   -6.8413 H       165      M_A    0.0000
   2296 H          47.4427    1.5360   -5.8956 H       165      M_A    0.0000
   2297 H          46.9198    2.9972   -5.2274 H       165      M_A    0.0000
   2298 H          49.2993    5.1211   -6.3427 H       165      M_A    0.0000
   2299 H          50.4426    4.9971   -5.1065 H       165      M_A    0.0000
   2300 H          48.8043    5.1714   -4.7317 H       165      M_A    0.0000
   2301 Si         50.4173    2.6517   -7.6263 Si      166      M_A    0.0000
   2302 C          48.7866    2.4203   -8.3482 C.3     166      M_A    0.0000
   2303 C          50.7690    4.4151   -7.6013 C.3     166      M_A    0.0000
   2304 O          51.5368    1.8366   -8.4206 O.3     166      M_A    0.0000
   2305 H          48.7602    2.7911   -9.3206 H       166      M_A    0.0000
   2306 H          48.5387    1.4094   -8.3756 H       166      M_A    0.0000
   2307 H          48.0645    2.9219   -7.7903 H       166      M_A    0.0000
   2308 H          50.7609    4.8043   -8.5668 H       166      M_A    0.0000
   2309 H          51.7051    4.5957   -7.1827 H       166      M_A    0.0000
   2310 H          50.0536    4.9234   -7.0409 H       166      M_A    0.0000
   2311 Si         51.5389    1.9282   -9.7606 Si      167      M_A    0.0000
   2312 C          52.1221    0.3542  -10.4059 C.3     167      M_A    0.0000
   2313 C          49.8333    2.1472  -10.2869 C.3     167      M_A    0.0000
   2314 O          52.4640    3.1404  -10.2333 O.3     167      M_A    0.0000
   2315 H          52.0782    0.3456  -11.4461 H       167      M_A    0.0000
   2316 H          53.1078    0.1831  -10.1177 H       167      M_A    0.0000
   2317 H          51.5340   -0.4281  -10.0503 H       167      M_A    0.0000
   2318 H          49.7684    2.1551  -11.3259 H       167      M_A    0.0000
   2319 H          49.4521    3.0469   -9.9275 H       167      M_A    0.0000
   2320 H          49.2375    1.3709   -9.9308 H       167      M_A    0.0000
   2321 Si         52.3473    3.5513  -11.5067 Si      168      M_A    0.0000
   2322 C          50.7280    3.0327  -12.0924 C.3     168      M_A    0.0000
   2323 C          52.3853    5.3492  -11.4968 C.3     168      M_A    0.0000
   2324 O          53.5223    2.9398  -12.3978 O.3     168      M_A    0.0000
   2325 H          50.5562    3.3866  -13.0563 H       168      M_A    0.0000
   2326 H          50.6597    1.9939  -12.1073 H       168      M_A    0.0000
   2327 H          49.9781    3.4037  -11.4724 H       168      M_A    0.0000
   2328 H          52.2287    5.7244  -12.4552 H       168      M_A    0.0000
   2329 H          53.3068    5.6939  -11.1560 H       168      M_A    0.0000
   2330 H          51.6409    5.7279  -10.8749 H       168      M_A    0.0000
   2331 Si         53.2234    2.5766  -13.6559 Si      169      M_A    0.0000
   2332 C          54.4797    1.4060  -14.1901 C.3     169      M_A    0.0000
   2333 C          51.6458    1.7148  -13.6060 C.3     169      M_A    0.0000
   2334 O          53.1673    3.8584  -14.6058 O.3     169      M_A    0.0000
   2335 H          54.2579    1.0374  -15.1381 H       169      M_A    0.0000
   2336 H          55.4143    1.8633  -14.2263 H       169      M_A    0.0000
   2337 H          54.5323    0.5998  -13.5330 H       169      M_A    0.0000
   2338 H          51.3979    1.3491  -14.5486 H       169      M_A    0.0000
   2339 H          50.8879    2.3566  -13.2933 H       169      M_A    0.0000
   2340 H          51.6889    0.9097  -12.9470 H       169      M_A    0.0000
   2341 Si         53.1487    3.6484  -15.9323 Si      170      M_A    0.0000
   2342 C          54.8283    3.2507  -16.4370 C.3     170      M_A    0.0000
   2343 C          52.1209    2.2038  -16.2333 C.3     170      M_A    0.0000
   2344 O          52.5928    4.9383  -16.6914 O.3     170      M_A    0.0000
   2345 H          54.8596    3.0101  -17.4494 H       170      M_A    0.0000
   2346 H          55.4614    4.0608  -16.2726 H       170      M_A    0.0000
   2347 H          55.1892    2.4356  -15.8988 H       170      M_A    0.0000
   2348 H          52.1273    1.9535  -17.2439 H       170      M_A    0.0000
   2349 H          51.1370    2.3886  -15.9473 H       170      M_A    0.0000
   2350 H          52.4728    1.3852  -15.6945 H       170      M_A    0.0000
   2351 Si         52.0740    4.7621  -17.9177 Si      171      M_A    0.0000
   2352 C          51.8542    2.9937  -18.1592 C.3     171      M_A    0.0000
   2353 C          50.4484    5.5310  -17.9289 C.3     171      M_A    0.0000
   2354 O          53.0353    5.3952  -19.0239 O.3     171      M_A    0.0000
   2355 H          51.3889    2.8033  -19.0709 H       171      M_A    0.0000
   2356 H          52.7742    2.5063  -18.1524 H       171      M_A    0.0000
   2357 H          51.2622    2.5915  -17.4029 H       171      M_A    0.0000
   2358 H          49.9701    5.3640  -18.8384 H       171      M_A    0.0000
   2359 H          50.5288    6.5590  -17.7844 H       171      M_A    0.0000
   2360 H          49.8517    5.1373  -17.1718 H       171      M_A    0.0000
   2361 Si         53.1315    4.7575  -20.2021 Si      172      M_A    0.0000
   2362 C          54.5674    3.6785  -20.1135 C.3     172      M_A    0.0000
   2363 C          51.6697    3.7244  -20.3747 C.3     172      M_A    0.0000
   2364 O          53.2557    5.8106  -21.3955 O.3     172      M_A    0.0000
   2365 H          54.6498    3.1062  -20.9792 H       172      M_A    0.0000
   2366 H          55.4391    4.2376  -20.0056 H       172      M_A    0.0000
   2367 H          54.4889    3.0301  -19.3025 H       172      M_A    0.0000
   2368 H          51.7254    3.1525  -21.2429 H       172      M_A    0.0000
   2369 H          50.8107    4.3108  -20.4228 H       172      M_A    0.0000
   2370 H          51.5815    3.0761  -19.5646 H       172      M_A    0.0000
   2371 Si         53.7238    5.3637  -22.5724 Si      173      M_A    0.0000
   2372 C          55.4939    5.1076  -22.3843 C.3     173      M_A    0.0000
   2373 C          52.9606    3.7651  -22.8822 C.3     173      M_A    0.0000
   2374 O          53.3977    6.4098  -23.7335 O.3     173      M_A    0.0000
   2375 H          55.8984    4.6942  -23.2499 H       173      M_A    0.0000
   2376 H          55.9763    6.0108  -22.1956 H       173      M_A    0.0000
   2377 H          55.6881    4.4584  -21.5937 H       173      M_A    0.0000
   2378 H          53.3419    3.3394  -23.7523 H       173      M_A    0.0000
   2379 H          51.9301    3.8665  -22.9908 H       173      M_A    0.0000
   2380 H          53.1464    3.1115  -22.0932 H       173      M_A    0.0000
   2381 Si         52.5233    6.0336  -24.6812 Si      174      M_A    0.0000
   2382 C          51.4899    4.7416  -23.9764 C.3     174      M_A    0.0000
   2383 C          51.4755    7.4507  -25.0385 C.3     174      M_A    0.0000
   2384 O          53.2978    5.5276  -25.9823 O.3     174      M_A    0.0000
   2385 H          50.7461    4.4599  -24.6482 H       174      M_A    0.0000
   2386 H          52.0601    3.9012  -23.7470 H       174      M_A    0.0000
   2387 H          51.0293    5.0758  -23.1044 H       174      M_A    0.0000
   2388 H          50.7316    7.1939  -25.7201 H       174      M_A    0.0000
   2389 H          52.0371    8.2283  -25.4434 H       174      M_A    0.0000
   2390 H          51.0149    7.7939  -24.1700 H       174      M_A    0.0000
   2391 Si         54.4689    4.8951  -25.8017 Si      175      M_A    0.0000
   2392 C          54.4893    4.2735  -24.1144 C.3     175      M_A    0.0000
   2393 C          54.4941    3.4829  -26.9149 C.3     175      M_A    0.0000
   2394 O          55.6862    5.8897  -26.0804 O.3     175      M_A    0.0000
   2395 H          55.3491    3.7127  -23.9407 H       175      M_A    0.0000
   2396 H          54.4683    5.0612  -23.4339 H       175      M_A    0.0000
   2397 H          53.6637    3.6637  -23.9387 H       175      M_A    0.0000
   2398 H          55.3540    2.9149  -26.7669 H       175      M_A    0.0000
   2399 H          54.4760    3.7985  -27.9069 H       175      M_A    0.0000
   2400 H          53.6685    2.8705  -26.7485 H       175      M_A    0.0000
   2401 Si         56.7116    5.8750  -25.2130 Si      176      M_A    0.0000
   2402 C          56.0910    5.2177  -23.6584 C.3     176      M_A    0.0000
   2403 C          57.9393    4.7266  -25.8516 C.3     176      M_A    0.0000
   2404 O          57.3112    7.3441  -25.0366 O.3     176      M_A    0.0000
   2405 H          56.8636    5.1193  -22.9675 H       176      M_A    0.0000
   2406 H          55.3692    5.8507  -23.2555 H       176      M_A    0.0000
   2407 H          55.6634    4.2792  -23.8022 H       176      M_A    0.0000
   2408 H          58.7289    4.6237  -25.1809 H       176      M_A    0.0000
   2409 H          58.3214    5.0664  -26.7586 H       176      M_A    0.0000
   2410 H          57.5179    3.7865  -26.0027 H       176      M_A    0.0000
   2411 Si         56.5725    8.2397  -24.3612 Si      177      M_A    0.0000
   2412 C          55.5725    7.3278  -23.1770 C.3     177      M_A    0.0000
   2413 C          57.7077    9.2872  -23.4402 C.3     177      M_A    0.0000
   2414 O          55.6699    9.0880  -25.3684 O.3     177      M_A    0.0000
   2415 H          55.0285    7.9815  -22.5764 H       177      M_A    0.0000
   2416 H          54.9031    6.7007  -23.6695 H       177      M_A    0.0000
   2417 H          56.1759    6.7461  -22.5591 H       177      M_A    0.0000
   2418 H          57.1833    9.9589  -22.8421 H       177      M_A    0.0000
   2419 H          58.3135    9.8303  -24.0899 H       177      M_A    0.0000
   2420 H          58.3182    8.7120  -22.8232 H       177      M_A    0.0000
   2421 Si         54.3535    8.8231  -25.3967 Si      178      M_A    0.0000
   2422 C          54.1285    7.3198  -26.3576 C.3     178      M_A    0.0000
   2423 C          53.8368    8.4858  -23.7075 C.3     178      M_A    0.0000
   2424 O          53.5526   10.0526  -26.0258 O.3     178      M_A    0.0000
   2425 H          53.1289    7.0288  -26.3542 H       178      M_A    0.0000
   2426 H          54.4234    7.4689  -27.3449 H       178      M_A    0.0000
   2427 H          54.6939    6.5418  -25.9584 H       178      M_A    0.0000
   2428 H          52.8345    8.2055  -23.6798 H       178      M_A    0.0000
   2429 H          53.9576    9.3313  -23.1121 H       178      M_A    0.0000
   2430 H          54.4012    7.7117  -23.2995 H       178      M_A    0.0000
   2431 Si         53.1391    9.9388  -27.2986 Si      179      M_A    0.0000
   2432 C          53.8326   11.3222  -28.2146 C.3     179      M_A    0.0000
   2433 C          53.8465    8.4235  -27.9600 C.3     179      M_A    0.0000
   2434 O          51.5441    9.9252  -27.3655 O.3     179      M_A    0.0000
   2435 H          53.5995   11.2456  -29.2264 H       179      M_A    0.0000
   2436 H          53.4537   12.2240  -27.8580 H       179      M_A    0.0000
   2437 H          54.8696   11.3402  -28.1214 H       179      M_A    0.0000
   2438 H          53.6135    8.3203  -28.9694 H       179      M_A    0.0000
   2439 H          53.4759    7.5941  -27.4513 H       179      M_A    0.0000
   2440 H          54.8835    8.4319  -27.8659 H       179      M_A    0.0000
   2441 Si         50.9215    8.7616  -27.1156 Si      180      M_A    0.0000
   2442 C          52.0961    7.6947  -26.2694 C.3     180      M_A    0.0000
   2443 C          49.5689    9.1084  -25.9824 C.3     180      M_A    0.0000
   2444 O          50.4008    8.1068  -28.4753 O.2     180      M_A    0.0000
   2445 H          51.6429    6.8003  -25.9892 H       180      M_A    0.0000
   2446 H          52.9025    7.4737  -26.8897 H       180      M_A    0.0000
   2447 H          52.4583    8.1577  -25.4099 H       180      M_A    0.0000
   2448 H          49.0926    8.2270  -25.6996 H       180      M_A    0.0000
   2449 H          48.8661    9.7317  -26.4313 H       180      M_A    0.0000
   2450 H          49.9227    9.5762  -25.1220 H       180      M_A    0.0000
   2451 Si         52.2092    3.5516   -1.0049 Si      181      M_A    0.0000
   2452 C          53.5205    4.0874   -1.9352 C.3     181      M_A    0.0000
   2453 C          50.8078    4.2996   -1.5951 C.3     181      M_A    0.0000
   2454 O          52.4145    3.8289    0.4594 O.3     181      M_A    0.0000
   2455 H          53.6181    5.0611   -1.8660 H       181      M_A    0.0000
   2456 H          54.3541    3.6705   -1.6285 H       181      M_A    0.0000
   2457 H          53.3888    3.8599   -2.8806 H       181      M_A    0.0000
   2458 H          50.8805    5.2753   -1.5228 H       181      M_A    0.0000
   2459 H          50.0212    4.0096   -1.0853 H       181      M_A    0.0000
   2460 H          50.6670    4.0729   -2.5394 H       181      M_A    0.0000
   2461 Si         51.9089    4.8890    0.9312 Si      182      M_A    0.0000
   2462 C          50.4285    5.1375    0.1446 C.3     182      M_A    0.0000
   2463 C          51.5901    4.6114    2.5722 C.3     182      M_A    0.0000
   2464 O          52.8464    6.0490    0.7340 O.3     182      M_A    0.0000
   2465 H          49.9634    5.9148    0.5214 H       182      M_A    0.0000
   2466 H          50.5693    5.2960   -0.8134 H       182      M_A    0.0000
   2467 H          49.8469    4.3540    0.2479 H       182      M_A    0.0000
   2468 H          51.1356    5.3838    2.9714 H       182      M_A    0.0000
   2469 H          52.4246    4.4555    3.0641 H       182      M_A    0.0000
   2470 H          51.0124    3.8260    2.6836 H       182      M_A    0.0000
   2471 Si         52.6725    7.0722    1.4586 Si      183      M_A    0.0000
   2472 C          51.0192    7.4426    1.4234 C.3     183      M_A    0.0000
   2473 C          53.0795    6.6430    3.0467 C.3     183      M_A    0.0000
   2474 O          53.5109    8.2168    0.9583 O.3     183      M_A    0.0000
   2475 H          50.8204    8.1926    2.0238 H       183      M_A    0.0000
   2476 H          50.7407    7.6909    0.5159 H       183      M_A    0.0000
   2477 H          50.4863    6.6708    1.7118 H       183      M_A    0.0000
   2478 H          52.8996    7.3856    3.6621 H       183      M_A    0.0000
   2479 H          54.0314    6.4137    3.1088 H       183      M_A    0.0000
   2480 H          52.5534    5.8685    3.3406 H       183      M_A    0.0000
   2481 Si         53.0460    9.3862    1.0939 Si      184      M_A    0.0000
   2482 C          52.5429    9.9117   -0.4367 C.3     184      M_A    0.0000
   2483 C          51.6765    9.2749    2.0859 C.3     184      M_A    0.0000
   2484 O          54.0875   10.2988    1.6820 O.3     184      M_A    0.0000
   2485 H          52.1133   10.7916   -0.3758 H       184      M_A    0.0000
   2486 H          53.3089    9.9831   -1.0457 H       184      M_A    0.0000
   2487 H          51.8966    9.2822   -0.8226 H       184      M_A    0.0000
   2488 H          51.2389   10.1489    2.1699 H       184      M_A    0.0000
   2489 H          51.9250    8.9659    2.9834 H       184      M_A    0.0000
   2490 H          51.0273    8.6433    1.7084 H       184      M_A    0.0000
   2491 Si         53.8799   11.5455    1.6131 Si      185      M_A    0.0000
   2492 C          54.5794   12.0963    0.1712 C.3     185      M_A    0.0000
   2493 C          52.2044   11.7745    1.5034 C.3     185      M_A    0.0000
   2494 O          54.4599   12.2402    2.8149 O.3     185      M_A    0.0000
   2495 H          54.3898   13.0496    0.0374 H       185      M_A    0.0000
   2496 H          55.5528   11.9747    0.1916 H       185      M_A    0.0000
   2497 H          54.2206   11.6027   -0.5972 H       185      M_A    0.0000
   2498 H          51.9929   12.7248    1.3818 H       185      M_A    0.0000
   2499 H          51.7593   11.4607    2.3195 H       185      M_A    0.0000
   2500 H          51.8376   11.2798    0.7395 H       185      M_A    0.0000
   2501 Si         54.5367   13.5031    2.7809 Si      186      M_A    0.0000
   2502 C          56.0768   13.9321    3.3429 C.3     186      M_A    0.0000
   2503 C          54.4217   13.9738    1.1570 C.3     186      M_A    0.0000
   2504 O          53.4472   14.1166    3.6175 O.3     186      M_A    0.0000
   2505 H          56.2115   14.9015    3.2752 H       186      M_A    0.0000
   2506 H          56.1868   13.6696    4.2819 H       186      M_A    0.0000
   2507 H          56.7735   13.4891    2.8126 H       186      M_A    0.0000
   2508 H          54.5412   14.9436    1.0691 H       186      M_A    0.0000
   2509 H          53.5431   13.7361    0.7904 H       186      M_A    0.0000
   2510 H          55.1129   13.5309    0.6194 H       186      M_A    0.0000
   2511 Si         53.2074   15.3487    3.4547 Si      187      M_A    0.0000
   2512 C          53.2827   15.6638    1.7913 C.3     187      M_A    0.0000
   2513 C          51.6170   15.6274    3.9693 C.3     187      M_A    0.0000
   2514 O          54.1963   16.1809    4.2248 O.3     187      M_A    0.0000
   2515 H          53.0393   16.5957    1.6048 H       187      M_A    0.0000
   2516 H          54.1896   15.5071    1.4513 H       187      M_A    0.0000
   2517 H          52.6624   15.0823    1.3014 H       187      M_A    0.0000
   2518 H          51.3583   16.5591    3.8029 H       187      M_A    0.0000
   2519 H          51.5291   15.4491    4.9301 H       187      M_A    0.0000
   2520 H          50.9911   15.0458    3.4867 H       187      M_A    0.0000
   2521 Si         54.0470   17.4376    4.2025 Si      188      M_A    0.0000
   2522 C          52.4510   17.7496    3.7258 C.3     188      M_A    0.0000
   2523 C          54.2387   17.9986    5.7901 C.3     188      M_A    0.0000
   2524 O          55.0417   18.0664    3.2652 O.3     188      M_A    0.0000
   2525 H          52.2636   18.7121    3.7552 H       188      M_A    0.0000
   2526 H          52.2963   17.4323    2.8103 H       188      M_A    0.0000
   2527 H          51.8176   17.2967    4.3229 H       188      M_A    0.0000
   2528 H          54.0678   18.9634    5.8385 H       188      M_A    0.0000
   2529 H          55.1517   17.8301    6.1075 H       188      M_A    0.0000
   2530 H          53.6113   17.5465    6.3941 H       188      M_A    0.0000
   2531 Si         54.6761   19.0980    2.6294 Si      189      M_A    0.0000
   2532 C          55.4427   19.0598    1.1185 C.3     189      M_A    0.0000
   2533 C          53.0059   18.9692    2.3728 C.3     189      M_A    0.0000
   2534 O          55.0272   20.3407    3.4013 O.3     189      M_A    0.0000
   2535 H          55.1412   19.8073    0.5592 H       189      M_A    0.0000
   2536 H          56.4160   19.1255    1.2239 H       189      M_A    0.0000
   2537 H          55.2367   18.2237    0.6480 H       189      M_A    0.0000
   2538 H          52.6820   19.7159    1.8251 H       189      M_A    0.0000
   2539 H          52.5238   18.9808    3.2273 H       189      M_A    0.0000
   2540 H          52.7918   18.1328    1.9065 H       189      M_A    0.0000
   2541 Si         54.6652   21.4527    2.9171 Si      190      M_A    0.0000
   2542 C          55.5035   21.6676    1.4601 C.3     190      M_A    0.0000
   2543 C          53.0131   21.3350    2.5584 C.3     190      M_A    0.0000
   2544 O          54.9462   22.5643    3.8910 O.3     190      M_A    0.0000
   2545 H          55.2093   22.4882    1.0101 H       190      M_A    0.0000
   2546 H          56.4686   21.7339    1.6241 H       190      M_A    0.0000
   2547 H          55.3423   20.9125    0.8544 H       190      M_A    0.0000
   2548 H          52.6960   22.1526    2.1185 H       190      M_A    0.0000
   2549 H          52.4907   21.2026    3.3784 H       190      M_A    0.0000
   2550 H          52.8435   20.5788    1.9565 H       190      M_A    0.0000
   2551 Si         54.6879   23.7467    3.5205 Si      191      M_A    0.0000
   2552 C          56.1201   24.6431    3.6528 C.3     191      M_A    0.0000
   2553 C          54.2599   23.6819    1.8821 C.3     191      M_A    0.0000
   2554 O          53.5856   24.3301    4.3619 O.3     191      M_A    0.0000
   2555 H          55.9894   25.5547    3.3146 H       191      M_A    0.0000
   2556 H          56.4067   24.6989    4.5895 H       191      M_A    0.0000
   2557 H          56.8387   24.2243    3.1322 H       191      M_A    0.0000
   2558 H          54.1122   24.5847    1.5276 H       191      M_A    0.0000
   2559 H          53.4356   23.1636    1.7612 H       191      M_A    0.0000
   2560 H          54.9724   23.2598    1.3556 H       191      M_A    0.0000
   2561 Si         53.6773   25.5511    4.6825 Si      192      M_A    0.0000
   2562 C          54.5586   25.6302    6.1279 C.3     192      M_A    0.0000
   2563 C          54.5803   26.3252    3.4753 C.3     192      M_A    0.0000
   2564 O          52.3087   26.1580    4.8304 O.3     192      M_A    0.0000
   2565 H          54.7145   26.5636    6.3867 H       192      M_A    0.0000
   2566 H          54.0711   25.1854    6.8539 H       192      M_A    0.0000
   2567 H          55.4306   25.1921    6.0249 H       192      M_A    0.0000
   2568 H          54.7364   27.2650    3.7098 H       192      M_A    0.0000
   2569 H          54.1057   26.2954    2.6171 H       192      M_A    0.0000
   2570 H          55.4523   25.8894    3.3635 H       192      M_A    0.0000
   2571 Si         51.9962   27.0971    4.0413 Si      193      M_A    0.0000
   2572 C          53.1120   27.0793    2.7660 C.3     193      M_A    0.0000
   2573 C          50.4675   26.7362    3.4050 C.3     193      M_A    0.0000
   2574 O          52.0007   28.4146    4.7676 O.3     193      M_A    0.0000
   2575 H          52.8748   27.7497    2.0901 H       193      M_A    0.0000
   2576 H          54.0148   27.2779    3.0949 H       193      M_A    0.0000
   2577 H          53.1260   26.1995    2.3317 H       193      M_A    0.0000
   2578 H          50.2060   27.4035    2.7350 H       193      M_A    0.0000
   2579 H          49.7909   26.7299    4.1156 H       193      M_A    0.0000
   2580 H          50.4726   25.8553    2.9729 H       193      M_A    0.0000
   2581 Si         53.0742   28.7640    5.3400 Si      194      M_A    0.0000
   2582 C          54.2715   27.6508    4.8938 C.3     194      M_A    0.0000
   2583 C          53.5097   30.2791    4.7182 C.3     194      M_A    0.0000
   2584 O          52.8821   28.8079    6.8315 O.2     194      M_A    0.0000
   2585 H          55.1424   27.9145    5.2605 H       194      M_A    0.0000
   2586 H          54.0527   26.7555    5.2303 H       194      M_A    0.0000
   2587 H          54.3529   27.6043    3.9170 H       194      M_A    0.0000
   2588 H          54.3735   30.5670    5.0834 H       194      M_A    0.0000
   2589 H          52.8358   30.9536    4.9499 H       194      M_A    0.0000
   2590 H          53.5885   30.2414    3.7408 H       194      M_A    0.0000
   2591 Si         56.3276    2.3666    1.4176 Si      195      M_A    0.0000
   2592 C          57.0180    3.8087    1.1565 C.3     195      M_A    0.0000
   2593 C          54.8227    2.6226    1.9600 C.3     195      M_A    0.0000
   2594 O          57.0952    1.5664    2.3335 O.3     195      M_A    0.0000
   2595 H          57.0544    4.3060    1.9509 H       195      M_A    0.0000
   2596 H          57.8924    3.7022    0.8342 H       195      M_A    0.0000
   2597 H          56.5269    4.3005    0.5264 H       195      M_A    0.0000
   2598 H          54.8389    3.1090    2.7618 H       195      M_A    0.0000
   2599 H          54.3859    1.8076    2.1176 H       195      M_A    0.0000
   2600 H          54.3243    3.1104    1.3326 H       195      M_A    0.0000
   2601 Si         58.2908    1.7491    2.3702 Si      196      M_A    0.0000
   2602 C          58.8016    1.9193    0.8423 C.3     196      M_A    0.0000
   2603 C          58.5427    3.1513    3.1417 C.3     196      M_A    0.0000
   2604 O          58.9447    0.6521    3.0316 O.3     196      M_A    0.0000
   2605 H          59.7162    2.1258    0.8210 H       196      M_A    0.0000
   2606 H          58.6661    1.1269    0.3591 H       196      M_A    0.0000
   2607 H          58.3359    2.6118    0.4138 H       196      M_A    0.0000
   2608 H          59.4549    3.3690    3.1415 H       196      M_A    0.0000
   2609 H          58.2525    3.0946    4.0319 H       196      M_A    0.0000
   2610 H          58.0761    3.8479    2.7209 H       196      M_A    0.0000
   2611 Si         59.2001    0.7794    4.2075 Si      197      M_A    0.0000
   2612 C          60.4919    1.7506    4.3200 C.3     197      M_A    0.0000
   2613 C          57.9437    1.5352    4.8967 C.3     197      M_A    0.0000
   2614 O          59.4446   -0.5042    4.8084 O.3     197      M_A    0.0000
   2615 H          60.6923    1.9307    5.2184 H       197      M_A    0.0000
   2616 H          61.2417    1.3490    3.9247 H       197      M_A    0.0000
   2617 H          60.3295    2.5671    3.8877 H       197      M_A    0.0000
   2618 H          58.1208    1.7134    5.8003 H       197      M_A    0.0000
   2619 H          57.1717    1.0050    4.8457 H       197      M_A    0.0000
   2620 H          57.7729    2.3510    4.4662 H       197      M_A    0.0000
   2621 Si         59.8966   -0.5199    5.9307 Si      198      M_A    0.0000
   2622 C          60.6476   -1.9415    6.1303 C.3     198      M_A    0.0000
   2623 C          61.0114    0.6522    6.0200 C.3     198      M_A    0.0000
   2624 O          58.8471   -0.3316    6.8958 O.3     198      M_A    0.0000
   2625 H          61.0698   -1.9773    6.9670 H       198      M_A    0.0000
   2626 H          60.0336   -2.6488    6.0785 H       198      M_A    0.0000
   2627 H          61.3004   -2.0656    5.4682 H       198      M_A    0.0000
   2628 H          61.4370    0.6402    6.8557 H       198      M_A    0.0000
   2629 H          60.6148    1.4941    5.9024 H       198      M_A    0.0000
   2630 H          61.6655    0.5368    5.3576 H       198      M_A    0.0000
   2631 Si         58.5277    0.8049    7.1610 Si      199      M_A    0.0000
   2632 C          59.8884    1.6347    7.4520 C.3     199      M_A    0.0000
   2633 C          57.8310    1.4328    5.8401 C.3     199      M_A    0.0000
   2634 O          57.6396    0.8244    8.2922 O.3     199      M_A    0.0000
   2635 H          59.6971    2.5405    7.6023 H       199      M_A    0.0000
   2636 H          60.3260    1.2954    8.2091 H       199      M_A    0.0000
   2637 H          60.4728    1.5772    6.7204 H       199      M_A    0.0000
   2638 H          57.6207    2.3367    5.9756 H       199      M_A    0.0000
   2639 H          57.0398    0.9729    5.6345 H       199      M_A    0.0000
   2640 H          58.4085    1.3746    5.1031 H       199      M_A    0.0000
   2641 Si         57.6104    1.8306    8.9637 Si      200      M_A    0.0000
   2642 C          56.9333    1.4451   10.3841 C.3     200      M_A    0.0000
   2643 C          59.1442    2.2708    9.2431 C.3     200      M_A    0.0000
   2644 O          56.8746    2.8637    8.2856 O.3     200      M_A    0.0000
   2645 H          56.9444    2.1808   10.9656 H       200      M_A    0.0000
   2646 H          56.0425    1.1775   10.2628 H       200      M_A    0.0000
   2647 H          57.4015    0.7426   10.7930 H       200      M_A    0.0000
   2648 H          59.1756    3.0141    9.8142 H       200      M_A    0.0000
   2649 H          59.5739    2.4964    8.4404 H       200      M_A    0.0000
   2650 H          59.6198    1.5710    9.6482 H       200      M_A    0.0000
   2651 Si         56.9963    3.9967    8.6925 Si      201      M_A    0.0000
   2652 C          58.4848    4.1291    9.3182 C.3     201      M_A    0.0000
   2653 C          56.9019    4.9839    7.4115 C.3     201      M_A    0.0000
   2654 O          55.9805    4.2902    9.6674 O.3     201      M_A    0.0000
   2655 H          58.6505    5.0106    9.5924 H       201      M_A    0.0000
   2656 H          58.5813    3.5653   10.0616 H       201      M_A    0.0000
   2657 H          59.1325    3.8947    8.6814 H       201      M_A    0.0000
   2658 H          57.0531    5.8733    7.6681 H       201      M_A    0.0000
   2659 H          56.0530    4.9307    7.0161 H       201      M_A    0.0000
   2660 H          57.5443    4.7523    6.7683 H       201      M_A    0.0000
   2661 Si         56.2302    5.1319   10.5001 Si      202      M_A    0.0000
   2662 C          57.4689    6.0136    9.9407 C.3     202      M_A    0.0000
   2663 C          54.9364    6.1005   10.6124 C.3     202      M_A    0.0000
   2664 O          56.5431    4.5126   11.7598 O.3     202      M_A    0.0000
   2665 H          57.6606    6.7217   10.5250 H       202      M_A    0.0000
   2666 H          58.2384    5.4842    9.8553 H       202      M_A    0.0000
   2667 H          57.2629    6.3762    9.1004 H       202      M_A    0.0000
   2668 H          55.1049    6.8094   11.2030 H       202      M_A    0.0000
   2669 H          54.1935    5.6230   10.9283 H       202      M_A    0.0000
   2670 H          54.7220    6.4633    9.7744 H       202      M_A    0.0000
   2671 Si         56.6397    5.2314   12.7283 Si      203      M_A    0.0000
   2672 C          55.5739    6.4375   12.5442 C.3     203      M_A    0.0000
   2673 C          56.1951    4.3632   14.0218 C.3     203      M_A    0.0000
   2674 O          57.9852    5.7239   12.8540 O.3     203      M_A    0.0000
   2675 H          55.5666    6.9903   13.3019 H       203      M_A    0.0000
   2676 H          55.7946    6.9615   11.7982 H       203      M_A    0.0000
   2677 H          54.7082    6.0972   12.4227 H       203      M_A    0.0000
   2678 H          56.1936    4.8969   14.7931 H       203      M_A    0.0000
   2679 H          56.7868    3.6483   14.1583 H       203      M_A    0.0000
   2680 H          55.3315    4.0160   13.9053 H       203      M_A    0.0000
   2681 Si         58.1468    6.9228   12.8320 Si      204      M_A    0.0000
   2682 C          59.4737    7.2163   11.9500 C.3     204      M_A    0.0000
   2683 C          56.8782    7.5681   12.0581 C.3     204      M_A    0.0000
   2684 O          58.2720    7.4357   14.1698 O.3     204      M_A    0.0000
   2685 H          59.6069    8.1394   11.8510 H       204      M_A    0.0000
   2686 H          60.2321    6.8510   12.3638 H       204      M_A    0.0000
   2687 H          59.3915    6.8398   11.0948 H       204      M_A    0.0000
   2688 H          56.9875    8.4945   11.9600 H       204      M_A    0.0000
   2689 H          56.0864    7.4130   12.5364 H       204      M_A    0.0000
   2690 H          56.7873    7.1928   11.2032 H       204      M_A    0.0000
   2691 Si         57.8277    8.5394   14.3900 Si      205      M_A    0.0000
   2692 C          58.5943    9.5748   13.4078 C.3     205      M_A    0.0000
   2693 C          56.2616    8.5223   13.9756 C.3     205      M_A    0.0000
   2694 O          58.0088    8.8848   15.7744 O.3     205      M_A    0.0000
   2695 H          58.2399   10.4385   13.4970 H       205      M_A    0.0000
   2696 H          59.5090    9.6080   13.6130 H       205      M_A    0.0000
   2697 H          58.5001    9.3115   12.5124 H       205      M_A    0.0000
   2698 H          55.8857    9.3764   14.0700 H       205      M_A    0.0000
   2699 H          55.7830    7.9269   14.5200 H       205      M_A    0.0000
   2700 H          56.1596    8.2555   13.0821 H       205      M_A    0.0000
   2701 Si         57.8372   10.0403   16.0901 Si      206      M_A    0.0000
   2702 C          58.8369   10.9419   15.1888 C.3     206      M_A    0.0000
   2703 C          56.3158   10.4299   15.6926 C.3     206      M_A    0.0000
   2704 O          58.0823   10.2167   17.4962 O.3     206      M_A    0.0000
   2705 H          58.6969   11.8546   15.3531 H       206      M_A    0.0000
   2706 H          59.7313   10.7399   15.3862 H       206      M_A    0.0000
   2707 H          58.6911   10.7838   14.2758 H       206      M_A    0.0000
   2708 H          56.1526   11.3379   15.8614 H       206      M_A    0.0000
   2709 H          55.7045    9.9221   16.1908 H       206      M_A    0.0000
   2710 H          56.1616   10.2701   14.7812 H       206      M_A    0.0000
   2711 Si         57.9255   11.3244   17.9572 Si      207      M_A    0.0000
   2712 C          58.9034   12.3293   17.1455 C.3     207      M_A    0.0000
   2713 C          56.3953   11.7622   17.6553 C.3     207      M_A    0.0000
   2714 O          58.2118   11.3253   19.3666 O.3     207      M_A    0.0000
   2715 H          58.7726   13.2149   17.4253 H       207      M_A    0.0000
   2716 H          59.8021   12.1032   17.2903 H       207      M_A    0.0000
   2717 H          58.7307   12.2855   16.2245 H       207      M_A    0.0000
   2718 H          56.2414   12.6426   17.9397 H       207      M_A    0.0000
   2719 H          55.7960   11.1975   18.1045 H       207      M_A    0.0000
   2720 H          56.2142   11.7165   16.7360 H       207      M_A    0.0000
   2721 Si         58.7306   10.3367   19.8330 Si      208      M_A    0.0000
   2722 C          58.0962    9.0534   19.0746 C.3     208      M_A    0.0000
   2723 C          60.3086   10.4020   19.4722 C.3     208      M_A    0.0000
   2724 O          58.5108   10.2787   21.2532 O.3     208      M_A    0.0000
   2725 H          58.5129    8.2626   19.3586 H       208      M_A    0.0000
   2726 H          57.1782    8.9847   19.2544 H       208      M_A    0.0000
   2727 H          58.2124    9.1277   18.1467 H       208      M_A    0.0000
   2728 H          60.7457    9.6237   19.7598 H       208      M_A    0.0000
   2729 H          60.7120   11.1389   19.8894 H       208      M_A    0.0000
   2730 H          60.4323   10.4809   18.5456 H       208      M_A    0.0000
   2731 Si         57.4142    9.9402   21.6365 Si      209      M_A    0.0000
   2732 C          56.7169    9.1073   20.4345 C.3     209      M_A    0.0000
   2733 C          57.6281    8.9318   22.8863 C.3     209      M_A    0.0000
   2734 O          56.6364   11.0915   22.0080 O.3     209      M_A    0.0000
   2735 H          55.8857    8.7686   20.7064 H       209      M_A    0.0000
   2736 H          56.5818    9.6577   19.6872 H       209      M_A    0.0000
   2737 H          57.2568    8.3845   20.1775 H       209      M_A    0.0000
   2738 H          56.8052    8.5915   23.1806 H       209      M_A    0.0000
   2739 H          58.0371    9.3773   23.6032 H       209      M_A    0.0000
   2740 H          58.1710    8.2084   22.6374 H       209      M_A    0.0000
   2741 Si         56.9477   12.1567   21.5257 Si      210      M_A    0.0000
   2742 C          58.4345   12.5142   22.0605 C.3     210      M_A    0.0000
   2743 C          57.0277   11.9562   19.9201 C.3     210      M_A    0.0000
   2744 O          55.9929   13.1690   21.8893 O.3     210      M_A    0.0000
   2745 H          58.7469   13.3046   21.6639 H       210      M_A    0.0000
   2746 H          58.4307   12.6320   22.9911 H       210      M_A    0.0000
   2747 H          59.0353   11.8250   21.8507 H       210      M_A    0.0000
   2748 H          57.3272   12.7415   19.5038 H       210      M_A    0.0000
   2749 H          56.1837   11.7407   19.5723 H       210      M_A    0.0000
   2750 H          57.6238   11.2651   19.7031 H       210      M_A    0.0000
   2751 Si         56.3916   14.3078   21.9800 Si      211      M_A    0.0000
   2752 C          57.9757   14.2946   21.6405 C.3     211      M_A    0.0000
   2753 C          55.6415   15.1759   20.8362 C.3     211      M_A    0.0000
   2754 O          56.1333   14.8253   23.2968 O.3     211      M_A    0.0000
   2755 H          58.3199   15.1670   21.6368 H       211      M_A    0.0000
   2756 H          58.4457   13.7941   22.2796 H       211      M_A    0.0000
   2757 H          58.1290   13.9166   20.7958 H       211      M_A    0.0000
   2758 H          55.9643   16.0564   20.8251 H       211      M_A    0.0000
   2759 H          54.7174   15.2018   20.9949 H       211      M_A    0.0000
   2760 H          55.7870   14.8009   19.9888 H       211      M_A    0.0000
   2761 Si         56.7474   15.8090   23.6422 Si      212      M_A    0.0000
   2762 C          58.1230   15.8457   22.7872 C.3     212      M_A    0.0000
   2763 C          55.8643   17.1019   23.2259 C.3     212      M_A    0.0000
   2764 O          57.0005   15.7699   25.0574 O.2     212      M_A    0.0000
   2765 H          58.6076   16.6265   22.9748 H       212      M_A    0.0000
   2766 H          58.6611   15.1065   22.9965 H       212      M_A    0.0000
   2767 H          57.9404   15.8294   21.8673 H       212      M_A    0.0000
   2768 H          56.3282   17.8942   23.4175 H       212      M_A    0.0000
   2769 H          55.0534   17.1128   23.6971 H       212      M_A    0.0000
   2770 H          55.6741   17.0897   22.3074 H       212      M_A    0.0000
   2771 Si         58.8058   -2.2024   -1.2455 Si      213      M_A    0.0000
   2772 C          60.4417   -2.6316   -1.5479 C.3     213      M_A    0.0000
   2773 C          58.5297   -2.3204    0.4461 C.3     213      M_A    0.0000
   2774 O          57.8372   -3.0739   -2.0383 O.3     213      M_A    0.0000
   2775 H          60.6202   -3.5634   -1.2491 H       213      M_A    0.0000
   2776 H          60.6456   -2.5696   -2.5195 H       213      M_A    0.0000
   2777 H          61.0590   -2.0254   -1.0570 H       213      M_A    0.0000
   2778 H          58.6906   -3.2493    0.7632 H       213      M_A    0.0000
   2779 H          57.5917   -2.0725    0.6654 H       213      M_A    0.0000
   2780 H          59.1406   -1.7131    0.9436 H       213      M_A    0.0000
   2781 Si         58.2904   -4.1689   -2.5304 Si      214      M_A    0.0000
   2782 C          56.9434   -5.0758   -3.0916 C.3     214      M_A    0.0000
   2783 C          59.2581   -3.7591   -3.8896 C.3     214      M_A    0.0000
   2784 O          59.0879   -4.9335   -1.4789 O.3     214      M_A    0.0000
   2785 H          57.2458   -5.9084   -3.5438 H       214      M_A    0.0000
   2786 H          56.3515   -5.3284   -2.3331 H       214      M_A    0.0000
   2787 H          56.4113   -4.5451   -3.7433 H       214      M_A    0.0000
   2788 H          59.5817   -4.5796   -4.3492 H       214      M_A    0.0000
   2789 H          60.0487   -3.2252   -3.6077 H       214      M_A    0.0000
   2790 H          58.7337   -3.2240   -4.5440 H       214      M_A    0.0000
   2791 Si         58.6144   -4.9721   -0.2869 Si      215      M_A    0.0000
   2792 C          58.6956   -3.3784    0.3496 C.3     215      M_A    0.0000
   2793 C          56.9581   -5.4126   -0.4064 C.3     215      M_A    0.0000
   2794 O          59.4022   -5.9617    0.5654 O.3     215      M_A    0.0000
   2795 H          58.2785   -3.3399    1.2517 H       215      M_A    0.0000
   2796 H          59.6415   -3.0812    0.4287 H       215      M_A    0.0000
   2797 H          58.2133   -2.7403   -0.2420 H       215      M_A    0.0000
   2798 H          56.5251   -5.3929    0.4888 H       215      M_A    0.0000
   2799 H          56.8664   -6.3305   -0.7787 H       215      M_A    0.0000
   2800 H          56.4701   -4.7814   -1.0005 H       215      M_A    0.0000
   2801 Si         59.2476   -7.2116    0.3195 Si      216      M_A    0.0000
   2802 C          57.5595   -7.5045    0.1915 C.3     216      M_A    0.0000
   2803 C          59.9587   -7.5252   -1.2127 C.3     216      M_A    0.0000
   2804 O          59.8850   -8.0522    1.4210 O.3     216      M_A    0.0000
   2805 H          57.3866   -8.4499   -0.0647 H       216      M_A    0.0000
   2806 H          57.1071   -7.3273    1.0595 H       216      M_A    0.0000
   2807 H          57.1539   -6.9168   -0.5010 H       216      M_A    0.0000
   2808 H          59.8079   -8.4707   -1.4818 H       216      M_A    0.0000
   2809 H          60.9392   -7.3603   -1.1834 H       216      M_A    0.0000
   2810 H          59.5611   -6.9375   -1.9100 H       216      M_A    0.0000
   2811 Si         59.3373   -9.1784    1.7006 Si      217      M_A    0.0000
   2812 C          58.0055   -8.8581    2.7376 C.3     217      M_A    0.0000
   2813 C          58.7237   -9.8290    0.2336 C.3     217      M_A    0.0000
   2814 O          60.3498  -10.1136    2.3536 O.3     217      M_A    0.0000
   2815 H          57.5042   -9.6948    2.9324 H       217      M_A    0.0000
   2816 H          58.3183   -8.4723    3.5994 H       217      M_A    0.0000
   2817 H          57.3783   -8.2132    2.3128 H       217      M_A    0.0000
   2818 H          58.2291  -10.6746    0.4054 H       217      M_A    0.0000
   2819 H          59.4655  -10.0230   -0.4001 H       217      M_A    0.0000
   2820 H          58.0990   -9.1873   -0.1995 H       217      M_A    0.0000
   2821 Si         59.8946  -11.1348    2.9833 Si      218      M_A    0.0000
   2822 C          59.6537  -10.6644    4.6181 C.3     218      M_A    0.0000
   2823 C          58.3608  -11.5128    2.3079 C.3     218      M_A    0.0000
   2824 O          60.8661  -12.3051    2.8694 O.3     218      M_A    0.0000
   2825 H          59.2380  -11.4037    5.1376 H       218      M_A    0.0000
   2826 H          60.5205  -10.4296    5.0457 H       218      M_A    0.0000
   2827 H          59.0525   -9.8735    4.6697 H       218      M_A    0.0000
   2828 H          57.9333  -12.2599    2.8061 H       218      M_A    0.0000
   2829 H          58.4555  -11.7847    1.3557 H       218      M_A    0.0000
   2830 H          57.7553  -10.7247    2.3517 H       218      M_A    0.0000
   2831 Si         60.8606  -13.1751    3.8126 Si      219      M_A    0.0000
   2832 C          62.1509  -12.7853    4.8780 C.3     219      M_A    0.0000
   2833 C          59.3859  -12.9890    4.6741 C.3     219      M_A    0.0000
   2834 O          61.0065  -14.5808    3.2390 O.3     219      M_A    0.0000
   2835 H          62.1504  -13.3928    5.6655 H       219      M_A    0.0000
   2836 H          63.0263  -12.8742    4.4142 H       219      M_A    0.0000
   2837 H          62.0624  -11.8509    5.2077 H       219      M_A    0.0000
   2838 H          59.3600  -13.5984    5.4597 H       219      M_A    0.0000
   2839 H          58.6099  -13.1996    4.0884 H       219      M_A    0.0000
   2840 H          59.2881  -12.0553    5.0031 H       219      M_A    0.0000
   2841 Si         61.6137  -15.4546    3.9563 Si      220      M_A    0.0000
   2842 C          63.2412  -15.5256    3.4104 C.3     220      M_A    0.0000
   2843 C          61.6208  -14.8757    5.5739 C.3     220      M_A    0.0000
   2844 O          60.9204  -16.8084    3.8436 O.3     220      M_A    0.0000
   2845 H          63.7746  -16.1431    3.9790 H       220      M_A    0.0000
   2846 H          63.2811  -15.8510    2.4713 H       220      M_A    0.0000
   2847 H          63.6632  -14.6256    3.4502 H       220      M_A    0.0000
   2848 H          62.1393  -15.4873    6.1624 H       220      M_A    0.0000
   2849 H          60.6930  -14.8130    5.9268 H       220      M_A    0.0000
   2850 H          62.0374  -13.9736    5.6209 H       220      M_A    0.0000
   2851 Si         61.5475  -17.8354    4.2892 Si      221      M_A    0.0000
   2852 C          62.7709  -18.2250    3.1476 C.3     221      M_A    0.0000
   2853 C          62.3162  -17.3719    5.7541 C.3     221      M_A    0.0000
   2854 O          60.5816  -18.9967    4.5008 O.3     221      M_A    0.0000
   2855 H          63.3314  -18.9773    3.4780 H       221      M_A    0.0000
   2856 H          62.3663  -18.4934    2.2794 H       221      M_A    0.0000
   2857 H          63.3646  -17.4425    2.9901 H       221      M_A    0.0000
   2858 H          62.8725  -18.1163    6.1084 H       221      M_A    0.0000
   2859 H          61.6401  -17.1307    6.4426 H       221      M_A    0.0000
   2860 H          62.9084  -16.5865    5.6053 H       221      M_A    0.0000
   2861 Si         60.9730  -19.9663    5.2446 Si      222      M_A    0.0000
   2862 C          62.5212  -19.5481    5.8609 C.3     222      M_A    0.0000
   2863 C          59.8839  -20.0691    6.5694 C.3     222      M_A    0.0000
   2864 O          61.0149  -21.2648    4.4456 O.3     222      M_A    0.0000
   2865 H          62.8427  -20.2400    6.4989 H       222      M_A    0.0000
   2866 H          63.1826  -19.4715    5.1220 H       222      M_A    0.0000
   2867 H          62.4832  -18.6777    6.3413 H       222      M_A    0.0000
   2868 H          60.1812  -20.7658    7.2139 H       222      M_A    0.0000
   2869 H          58.9703  -20.3036    6.2536 H       222      M_A    0.0000
   2870 H          59.8371  -19.2005    7.0521 H       222      M_A    0.0000
   2871 Si         61.2927  -22.3443    5.0812 Si      223      M_A    0.0000
   2872 C          61.6649  -21.9055    6.7001 C.3     223      M_A    0.0000
   2873 C          59.8696  -23.3066    5.1055 C.3     223      M_A    0.0000
   2874 O          62.4546  -23.0707    4.4114 O.3     223      M_A    0.0000
   2875 H          61.8243  -22.7156    7.2546 H       223      M_A    0.0000
   2876 H          62.4823  -21.3395    6.7298 H       223      M_A    0.0000
   2877 H          60.9134  -21.3953    7.1059 H       223      M_A    0.0000
   2878 H          60.0126  -24.1295    5.6455 H       223      M_A    0.0000
   2879 H          59.6149  -23.5773    4.1829 H       223      M_A    0.0000
   2880 H          59.1122  -22.8011    5.5061 H       223      M_A    0.0000
   2881 Si         63.0934  -23.9382    5.1084 Si      224      M_A    0.0000
   2882 C          64.3910  -23.1202    5.8822 C.3     224      M_A    0.0000
   2883 C          62.0231  -24.5075    6.3258 C.3     224      M_A    0.0000
   2884 O          63.5911  -25.0723    4.2182 O.3     224      M_A    0.0000
   2885 H          64.8810  -23.7367    6.4898 H       224      M_A    0.0000
   2886 H          65.0330  -22.7675    5.2092 H       224      M_A    0.0000
   2887 H          64.0511  -22.3577    6.4232 H       224      M_A    0.0000
   2888 H          62.4914  -25.1367    6.9374 H       224      M_A    0.0000
   2889 H          61.2509  -24.9834    5.9177 H       224      M_A    0.0000
   2890 H          61.6753  -23.7496    6.8683 H       224      M_A    0.0000
   2891 Si         63.3026  -26.2725    4.5689 Si      225      M_A    0.0000
   2892 C          64.7836  -27.1244    4.7498 C.3     225      M_A    0.0000
   2893 C          62.5460  -26.1895    6.1091 C.3     225      M_A    0.0000
   2894 O          62.3980  -26.9263    3.5294 O.3     225      M_A    0.0000
   2895 H          64.6187  -28.0458    5.0860 H       225      M_A    0.0000
   2896 H          65.2585  -27.1891    3.8782 H       225      M_A    0.0000
   2897 H          65.3776  -26.6597    5.3986 H       225      M_A    0.0000
   2898 H          62.3605  -27.1023    6.4578 H       225      M_A    0.0000
   2899 H          61.6845  -25.6958    6.0493 H       225      M_A    0.0000
   2900 H          63.1325  -25.7217    6.7624 H       225      M_A    0.0000
   2901 Si         61.1468  -27.0118    3.8010 Si      226      M_A    0.0000
   2902 C          60.8691  -26.1038    5.2328 C.3     226      M_A    0.0000
   2903 C          60.2902  -26.2556    2.5180 C.3     226      M_A    0.0000
   2904 O          60.7387  -28.4717    3.9696 O.3     226      M_A    0.0000
   2905 H          59.8991  -26.0829    5.4516 H       226      M_A    0.0000
   2906 H          61.3552  -26.5061    6.0018 H       226      M_A    0.0000
   2907 H          61.1811  -25.1661    5.1186 H       226      M_A    0.0000
   2908 H          59.3148  -26.2360    2.7119 H       226      M_A    0.0000
   2909 H          60.4305  -26.7485    1.6656 H       226      M_A    0.0000
   2910 H          60.6002  -25.3184    2.3948 H       226      M_A    0.0000
   2911 Si         60.8419  -28.9854    5.1410 Si      227      M_A    0.0000
   2912 C          61.5106  -30.5570    4.9552 C.3     227      M_A    0.0000
   2913 C          61.9656  -28.0310    6.0230 C.3     227      M_A    0.0000
   2914 O          59.4787  -29.0284    5.8237 O.2     227      M_A    0.0000
   2915 H          61.6732  -30.9755    5.8427 H       227      M_A    0.0000
   2916 H          60.8913  -31.1420    4.4416 H       227      M_A    0.0000
   2917 H          62.3778  -30.5132    4.4699 H       227      M_A    0.0000
   2918 H          62.1325  -28.4263    6.9203 H       227      M_A    0.0000
   2919 H          61.6182  -27.1072    6.1471 H       227      M_A    0.0000
   2920 H          62.8344  -27.9787    5.5412 H       227      M_A    0.0000
   2921 Si         68.3794   -1.0154    0.6620 Si      228      M_A    0.0000
   2922 C          68.7235   -3.1192    0.4814 C.3     228      M_A    0.0000
   2923 C          70.0546   -0.1561    1.6780 C.3     228      M_A    0.0000
   2924 O          66.7466   -0.6439    1.5582 O.3     228      M_A    0.0000
   2925 H          68.8366   -3.6401    1.5994 H       228      M_A    0.0000
   2926 H          67.7820   -3.6652   -0.1101 H       228      M_A    0.0000
   2927 H          69.7649   -3.3376   -0.1530 H       228      M_A    0.0000
   2928 H          70.1800   -0.6498    2.8070 H       228      M_A    0.0000
   2929 H          69.9081    1.0677    1.8012 H       228      M_A    0.0000
   2930 H          71.1004   -0.3646    1.0477 H       228      M_A    0.0000
   2931 Si         66.8146   -0.3523    3.1278 Si      229      M_A    0.0000
   2932 C          67.8074    1.5251    3.3868 C.3     229      M_A    0.0000
   2933 C          64.8037   -0.1389    3.8261 C.3     229      M_A    0.0000
   2934 O          67.7247   -1.7588    4.0226 O.3     229      M_A    0.0000
   2935 H          67.8203    1.8503    4.5818 H       229      M_A    0.0000
   2936 H          68.9781    1.4571    2.9881 H       229      M_A    0.0000
   2937 H          67.2274    2.4161    2.7510 H       229      M_A    0.0000
   2938 H          64.7890    0.1710    5.0251 H       229      M_A    0.0000
   2939 H          64.1805   -1.2007    3.6897 H       229      M_A    0.0000
   2940 H          64.2137    0.7465    3.1917 H       229      M_A    0.0000
   2941 Si         68.8453   -1.3545    5.0876 Si      230      M_A    0.0000
   2942 C          70.6883   -1.1340    4.0237 C.3     230      M_A    0.0000
   2943 C          68.3092    0.5570    5.8851 C.3     230      M_A    0.0000
   2944 O          68.9715   -2.6741    6.4477 O.3     230      M_A    0.0000
   2945 H          71.5849   -0.7396    4.7817 H       230      M_A    0.0000
   2946 H          71.0398   -2.2157    3.5330 H       230      M_A    0.0000
   2947 H          70.5668   -0.3087    3.1079 H       230      M_A    0.0000
   2948 H          69.1839    0.9670    6.6602 H       230      M_A    0.0000
   2949 H          67.2399    0.4853    6.5060 H       230      M_A    0.0000
   2950 H          68.1798    1.3880    4.9755 H       230      M_A    0.0000
   2951 Si         69.4893   -2.2068    7.8853 Si      231      M_A    0.0000
   2952 C          71.5240   -1.5850    7.6609 C.3     231      M_A    0.0000
   2953 C          68.3348   -0.4984    8.4563 C.3     231      M_A    0.0000
   2954 O          69.3203   -3.6218    9.1409 O.3     231      M_A    0.0000
   2955 H          71.9616   -1.1318    8.7272 H       231      M_A    0.0000
   2956 H          72.2361   -2.5399    7.3211 H       231      M_A    0.0000
   2957 H          71.6168   -0.7002    6.7989 H       231      M_A    0.0000
   2958 H          68.7432   -0.0353    9.5300 H       231      M_A    0.0000
   2959 H          67.1422   -0.8044    8.5916 H       231      M_A    0.0000
   2960 H          68.4169    0.3900    7.5970 H       231      M_A    0.0000
   2961 Si         68.9749   -3.2323   10.6516 Si      232      M_A    0.0000
   2962 C          70.2152   -1.5722   11.1834 C.3     232      M_A    0.0000
   2963 C          66.9388   -2.5766   10.6932 C.3     232      M_A    0.0000
   2964 O          69.2589   -4.7189   11.7991 O.3     232      M_A    0.0000
   2965 H          69.9377   -1.1671   12.3204 H       232      M_A    0.0000
   2966 H          71.4101   -1.8983   11.1660 H       232      M_A    0.0000
   2967 H          70.0527   -0.6350   10.3898 H       232      M_A    0.0000
   2968 H          66.6312   -2.1808   11.8257 H       232      M_A    0.0000
   2969 H          66.1768   -3.5026   10.3830 H       232      M_A    0.0000
   2970 H          66.7654   -1.6428    9.8980 H       232      M_A    0.0000
   2971 Si         69.4963   -4.4203   13.3508 Si      233      M_A    0.0000
   2972 C          71.4296   -3.5241   13.5409 C.3     233      M_A    0.0000
   2973 C          68.0363   -2.9777   13.9548 C.3     233      M_A    0.0000
   2974 O          69.3614   -6.0232   14.3606 O.3     233      M_A    0.0000
   2975 H          71.6426   -3.1915   14.7148 H       233      M_A    0.0000
   2976 H          72.3140   -4.3189   13.1938 H       233      M_A    0.0000
   2977 H          71.5121   -2.5114   12.8322 H       233      M_A    0.0000
   2978 H          68.2181   -2.6402   15.1325 H       233      M_A    0.0000
   2979 H          66.8941   -3.4463   13.8549 H       233      M_A    0.0000
   2980 H          68.1075   -1.9632   13.2475 H       233      M_A    0.0000
   2981 Si         69.9603   -6.0162   15.8420 Si      234      M_A    0.0000
   2982 C          72.0733   -6.3089   15.6786 C.3     234      M_A    0.0000
   2983 C          69.6237   -4.0676   16.6585 C.3     234      M_A    0.0000
   2984 O          69.1415   -7.3703   16.8924 O.3     234      M_A    0.0000
   2985 H          72.6115   -6.2317   16.7914 H       234      M_A    0.0000
   2986 H          72.3227   -7.4242   15.2010 H       234      M_A    0.0000
   2987 H          72.5773   -5.4466   14.9458 H       234      M_A    0.0000
   2988 H          70.1394   -3.9698   17.7803 H       234      M_A    0.0000
   2989 H          68.4100   -3.8443   16.7660 H       234      M_A    0.0000
   2990 H          70.1195   -3.1978   15.9290 H       234      M_A    0.0000
   2991 Si         69.8600   -7.7815   18.2591 Si      235      M_A    0.0000
   2992 C          71.2583   -9.3354   17.8039 C.3     235      M_A    0.0000
   2993 C          70.9621   -6.0786   18.9394 C.3     235      M_A    0.0000
   2994 O          68.5743   -8.3445   19.5385 O.3     235      M_A    0.0000
   2995 H          71.9103   -9.6441   18.8107 H       235      M_A    0.0000
   2996 H          70.6690  -10.3456   17.3957 H       235      M_A    0.0000
   2997 H          72.0528   -8.9642   16.9289 H       235      M_A    0.0000
   2998 H          71.6113   -6.3573   19.9566 H       235      M_A    0.0000
   2999 H          70.1958   -5.1436   19.2094 H       235      M_A    0.0000
   3000 H          71.7555   -5.6965   18.0682 H       235      M_A    0.0000
   3001 Si         69.0861   -9.2492   20.7521 Si      236      M_A    0.0000
   3002 C          68.2395  -11.1976   20.4985 C.3     236      M_A    0.0000
   3003 C          71.2106   -9.4223   20.5688 C.3     236      M_A    0.0000
   3004 O          68.5838   -8.4745   22.4119 O.3     236      M_A    0.0000
   3005 H          68.6643  -11.9738   21.3651 H       236      M_A    0.0000
   3006 H          67.0049  -11.1508   20.5876 H       236      M_A    0.0000
   3007 H          68.5355  -11.6601   19.3880 H       236      M_A    0.0000
   3008 H          71.6627  -10.1822   21.4361 H       236      M_A    0.0000
   3009 H          71.7505   -8.3152   20.7000 H       236      M_A    0.0000
   3010 H          71.5165   -9.8789   19.4586 H       236      M_A    0.0000
   3011 Si         68.7603   -9.3650   23.7269 Si      237      M_A    0.0000
   3012 C          66.8122   -9.6751   24.5551 C.3     237      M_A    0.0000
   3013 C          69.5285  -11.2653   23.1137 C.3     237      M_A    0.0000
   3014 O          69.9195   -8.5018   24.9591 O.3     237      M_A    0.0000
   3015 H          66.8702  -10.4299   25.5353 H       237      M_A    0.0000
   3016 H          66.3178   -8.5994   24.9194 H       237      M_A    0.0000
   3017 H          66.0590  -10.1891   23.7166 H       237      M_A    0.0000
   3018 H          69.6114  -12.0347   24.0808 H       237      M_A    0.0000
   3019 H          70.6563  -11.1393   22.6173 H       237      M_A    0.0000
   3020 H          68.7843  -11.7846   22.2705 H       237      M_A    0.0000
   3021 Si         69.7498   -8.8579   26.5076 Si      238      M_A    0.0000
   3022 C          70.8198   -7.3799   27.6245 C.3     238      M_A    0.0000
   3023 C          67.6723   -8.6704   26.9828 C.3     238      M_A    0.0000
   3024 O          70.3964  -10.6091   26.8578 O.3     238      M_A    0.0000
   3025 H          70.6599   -7.5518   28.8405 H       238      M_A    0.0000
   3026 H          72.0321   -7.4409   27.3777 H       238      M_A    0.0000
   3027 H          70.4182   -6.2431   27.3396 H       238      M_A    0.0000
   3028 H          67.4835   -8.8542   28.1929 H       238      M_A    0.0000
   3029 H          67.0048   -9.5021   26.3528 H       238      M_A    0.0000
   3030 H          67.2601   -7.5379   26.6958 H       238      M_A    0.0000
   3031 Si         70.6864  -10.9993   28.3800 Si      239      M_A    0.0000
   3032 C          70.8739   -9.1757   29.4829 C.3     239      M_A    0.0000
   3033 C          68.9668  -12.0409   29.1116 C.3     239      M_A    0.0000
   3034 O          72.2567  -12.0606   28.5027 O.3     239      M_A    0.0000
   3035 H          71.0188   -9.4094   30.6905 H       239      M_A    0.0000
   3036 H          71.8543   -8.5284   29.0902 H       239      M_A    0.0000
   3037 H          69.8609   -8.4764   29.3442 H       239      M_A    0.0000
   3038 H          69.0941  -12.3009   30.3158 H       239      M_A    0.0000
   3039 H          68.8080  -13.1047   28.4973 H       239      M_A    0.0000
   3040 H          67.9473  -11.3511   28.9717 H       239      M_A    0.0000
   3041 Si         72.3663  -13.0797   29.7285 Si      240      M_A    0.0000
   3042 C          74.0654  -12.4997   30.8921 C.3     240      M_A    0.0000
   3043 C          70.6186  -12.8191   30.9347 C.3     240      M_A    0.0000
   3044 O          72.5237  -14.8628   29.0937 O.3     240      M_A    0.0000
   3045 H          74.1590  -13.2027   31.9075 H       240      M_A    0.0000
   3046 H          75.1071  -12.6244   30.2336 H       240      M_A    0.0000
   3047 H          73.9661  -11.3177   31.2492 H       240      M_A    0.0000
   3048 H          70.6806  -13.5250   31.9504 H       240      M_A    0.0000
   3049 H          69.6017  -13.1345   30.3016 H       240      M_A    0.0000
   3050 H          70.5078  -11.6381   31.2919 H       240      M_A    0.0000
   3051 Si         71.3566  -15.8872   29.4701 Si      241      M_A    0.0000
   3052 C          72.1986  -17.8537   29.4429 C.3     241      M_A    0.0000
   3053 C          70.7492  -15.4555   31.4756 C.3     241      M_A    0.0000
   3054 O          69.9129  -15.7229   28.2469 O.3     241      M_A    0.0000
   3055 H          71.3623  -18.6913   29.8076 H       241      M_A    0.0000
   3056 H          72.5755  -18.1502   28.3008 H       241      M_A    0.0000
   3057 H          73.1712  -17.9220   30.2070 H       241      M_A    0.0000
   3058 H          69.8995  -16.2710   31.8589 H       241      M_A    0.0000
   3059 H          70.2604  -14.3197   31.5475 H       241      M_A    0.0000
   3060 H          71.7169  -15.5157   32.2465 H       241      M_A    0.0000
   3061 Si         69.8001  -14.3634   27.4148 Si      242      M_A    0.0000
   3062 C          68.5950  -13.0135   28.5561 C.3     242      M_A    0.0000
   3063 C          71.7677  -13.5354   27.2733 C.3     242      M_A    0.0000
   3064 O          69.0523  -14.6973   25.7012 O.2     242      M_A    0.0000
   3065 H          68.5358  -11.9072   28.0025 H       242      M_A    0.0000
   3066 H          67.4429  -13.4526   28.6751 H       242      M_A    0.0000
   3067 H          69.0727  -12.8533   29.6878 H       242      M_A    0.0000
   3068 H          71.7376  -12.4339   26.7079 H       242      M_A    0.0000
   3069 H          72.5105  -14.2862   26.6261 H       242      M_A    0.0000
   3070 H          72.2560  -13.3769   28.4007 H       242      M_A    0.0000
   3071 Si         70.7429    0.9615    1.3867 Si      243      M_A    0.0000
   3072 C          70.3919    2.5661    1.4678 C.3     243      M_A    0.0000
   3073 C          69.4562    0.1288    1.9832 C.3     243      M_A    0.0000
   3074 O          71.9740    0.6402    2.1027 O.3     243      M_A    0.0000
   3075 H          70.2359    2.8300    2.3692 H       243      M_A    0.0000
   3076 H          71.1131    3.0843    1.1241 H       243      M_A    0.0000
   3077 H          69.6101    2.7641    0.9615 H       243      M_A    0.0000
   3078 H          69.2916    0.3703    2.8893 H       243      M_A    0.0000
   3079 H          69.6185   -0.8087    1.9472 H       243      M_A    0.0000
   3080 H          68.6713    0.3186    1.4785 H       243      M_A    0.0000
   3081 Si         72.2558    1.3237    3.0836 Si      244      M_A    0.0000
   3082 C          73.2586    0.4308    4.0331 C.3     244      M_A    0.0000
   3083 C          73.0955    2.6317    2.5463 C.3     244      M_A    0.0000
   3084 O          71.0428    1.7149    3.7958 O.3     244      M_A    0.0000
   3085 H          73.5574    0.9418    4.7788 H       244      M_A    0.0000
   3086 H          72.8094   -0.3425    4.3600 H       244      M_A    0.0000
   3087 H          74.0237    0.1495    3.5408 H       244      M_A    0.0000
   3088 H          73.3928    3.1630    3.2783 H       244      M_A    0.0000
   3089 H          72.5489    3.1730    1.9852 H       244      M_A    0.0000
   3090 H          73.8601    2.3579    2.0490 H       244      M_A    0.0000
   3091 Si         71.1285    2.6414    4.5977 Si      245      M_A    0.0000
   3092 C          71.6049    3.9740    3.7600 C.3     245      M_A    0.0000
   3093 C          69.6188    2.9234    5.1858 C.3     245      M_A    0.0000
   3094 O          72.0698    2.3065    5.6623 O.3     245      M_A    0.0000
   3095 H          71.6254    4.7376    4.3283 H       245      M_A    0.0000
   3096 H          72.4758    3.8472    3.3965 H       245      M_A    0.0000
   3097 H          71.0026    4.1530    3.0445 H       245      M_A    0.0000
   3098 H          69.6209    3.6774    5.7672 H       245      M_A    0.0000
   3099 H          69.3034    2.1691    5.6738 H       245      M_A    0.0000
   3100 H          69.0098    3.0989    4.4751 H       245      M_A    0.0000
   3101 Si         71.7333    2.5548    6.8173 Si      246      M_A    0.0000
   3102 C          70.8787    3.9596    6.7889 C.3     246      M_A    0.0000
   3103 C          70.7207    1.3534    7.3031 C.3     246      M_A    0.0000
   3104 O          72.9079    2.6535    7.6787 O.3     246      M_A    0.0000
   3105 H          70.5401    4.1635    7.6551 H       246      M_A    0.0000
   3106 H          71.4309    4.6816    6.5050 H       246      M_A    0.0000
   3107 H          70.1409    3.8909    6.1908 H       246      M_A    0.0000
   3108 H          70.3806    1.5334    8.1739 H       246      M_A    0.0000
   3109 H          71.1784    0.5188    7.3263 H       246      M_A    0.0000
   3110 H          69.9823    1.2760    6.7067 H       246      M_A    0.0000
   3111 Si         72.7188    2.8334    8.8790 Si      247      M_A    0.0000
   3112 C          73.7450    4.0230    9.3653 C.3     247      M_A    0.0000
   3113 C          71.1799    3.3854    9.0567 C.3     247      M_A    0.0000
   3114 O          72.9378    1.5942    9.6193 O.3     247      M_A    0.0000
   3115 H          73.5928    4.2444   10.2787 H       247      M_A    0.0000
   3116 H          74.6502    3.7433    9.2712 H       247      M_A    0.0000
   3117 H          73.6167    4.8098    8.8443 H       247      M_A    0.0000
   3118 H          71.0041    3.6009    9.9673 H       247      M_A    0.0000
   3119 H          70.5531    2.7248    8.7783 H       247      M_A    0.0000
   3120 H          71.0430    4.1700    8.5347 H       247      M_A    0.0000
   3121 Si         72.7149    1.6068   10.8271 Si      248      M_A    0.0000
   3122 C          73.3626    0.2344   11.4607 C.3     248      M_A    0.0000
   3123 C          73.5229    2.8907   11.4625 C.3     248      M_A    0.0000
   3124 O          71.2793    1.6933   11.0781 O.3     248      M_A    0.0000
   3125 H          73.2712    0.2270   12.4084 H       248      M_A    0.0000
   3126 H          72.9242   -0.5351   11.1110 H       248      M_A    0.0000
   3127 H          74.2898    0.1741   11.2520 H       248      M_A    0.0000
   3128 H          73.4328    2.9077   12.4101 H       248      M_A    0.0000
   3129 H          73.1801    3.7077   11.1138 H       248      M_A    0.0000
   3130 H          74.4505    2.8393   11.2537 H       248      M_A    0.0000
   3131 Si         70.8954    1.5531   12.2364 Si      249      M_A    0.0000
   3132 C          69.7292    0.3935   12.2307 C.3     249      M_A    0.0000
   3133 C          72.1687    0.9892   13.1112 C.3     249      M_A    0.0000
   3134 O          70.3960    2.8199   12.7631 O.3     249      M_A    0.0000
   3135 H          69.4422    0.2024   13.1181 H       249      M_A    0.0000
   3136 H          68.9742    0.6807   11.7265 H       249      M_A    0.0000
   3137 H          70.0599   -0.4124   11.8460 H       249      M_A    0.0000
   3138 H          71.9042    0.8035   14.0068 H       249      M_A    0.0000
   3139 H          72.8708    1.6320   13.1329 H       249      M_A    0.0000
   3140 H          72.5076    0.1852   12.7295 H       249      M_A    0.0000
   3141 Si         69.7915    2.7921   13.8320 Si      250      M_A    0.0000
   3142 C          68.1997    3.0427   13.5030 C.3     250      M_A    0.0000
   3143 C          69.9508    1.2753   14.4473 C.3     250      M_A    0.0000
   3144 O          70.3214    3.8034   14.7419 O.3     250      M_A    0.0000
   3145 H          67.6777    2.9674   14.2956 H       250      M_A    0.0000
   3146 H          68.0664    3.9116   13.1372 H       250      M_A    0.0000
   3147 H          67.8819    2.3997   12.8765 H       250      M_A    0.0000
   3148 H          69.4448    1.1838   15.2487 H       250      M_A    0.0000
   3149 H          70.8632    1.0887   14.6456 H       250      M_A    0.0000
   3150 H          69.6388    0.6265   13.8241 H       250      M_A    0.0000
   3151 Si         69.7548    3.9488   15.8220 Si      251      M_A    0.0000
   3152 C          68.5292    5.0214   15.5935 C.3     251      M_A    0.0000
   3153 C          69.0928    2.4994   16.2288 C.3     251      M_A    0.0000
   3154 O          70.6997    4.4146   16.8329 O.3     251      M_A    0.0000
   3155 H          68.0178    5.1207   16.3904 H       251      M_A    0.0000
   3156 H          68.8728    5.8751   15.3491 H       251      M_A    0.0000
   3157 H          67.9464    4.7218   14.9026 H       251      M_A    0.0000
   3158 H          68.5865    2.5756   17.0315 H       251      M_A    0.0000
   3159 H          69.7729    1.8469   16.3638 H       251      M_A    0.0000
   3160 H          68.5118    2.1914   15.5400 H       251      M_A    0.0000
   3161 Si         70.2787    4.5679   17.9765 Si      252      M_A    0.0000
   3162 C          68.8850    5.4351   17.8749 C.3     252      M_A    0.0000
   3163 C          69.9088    3.0786   18.5678 C.3     252      M_A    0.0000
   3164 O          71.2775    5.2438   18.7994 O.3     252      M_A    0.0000
   3165 H          68.4842    5.5272   18.7336 H       252      M_A    0.0000
   3166 H          69.0568    6.3054   17.5291 H       252      M_A    0.0000
   3167 H          68.2610    5.0005   17.3017 H       252      M_A    0.0000
   3168 H          69.5174    3.1491   19.4329 H       252      M_A    0.0000
   3169 H          70.6921    2.5415   18.6358 H       252      M_A    0.0000
   3170 H          69.2883    2.6361   17.9969 H       252      M_A    0.0000
   3171 Si         70.9603    5.5416   19.9481 Si      253      M_A    0.0000
   3172 C          71.6077    7.0188   20.2694 C.3     253      M_A    0.0000
   3173 C          69.3224    5.6856   19.9840 C.3     253      M_A    0.0000
   3174 O          71.4348    4.5277   20.8853 O.3     253      M_A    0.0000
   3175 H          71.3366    7.3237   21.1297 H       253      M_A    0.0000
   3176 H          72.5588    6.9785   20.2514 H       253      M_A    0.0000
   3177 H          71.3206    7.6579   19.6244 H       253      M_A    0.0000
   3178 H          69.0303    5.9782   20.8416 H       253      M_A    0.0000
   3179 H          68.9087    4.8490   19.7954 H       253      M_A    0.0000
   3180 H          69.0277    6.3202   19.3380 H       253      M_A    0.0000
   3181 Si         71.0526    4.6071   22.0500 Si      254      M_A    0.0000
   3182 C          72.3294    4.2246   23.0133 C.3     254      M_A    0.0000
   3183 C          70.6564    6.1783   22.3311 C.3     254      M_A    0.0000
   3184 O          69.9190    3.7149   22.2748 O.3     254      M_A    0.0000
   3185 H          72.1011    4.3329   23.9312 H       254      M_A    0.0000
   3186 H          72.5942    3.3205   22.8747 H       254      M_A    0.0000
   3187 H          73.0727    4.7889   22.8242 H       254      M_A    0.0000
   3188 H          70.4127    6.3046   23.2427 H       254      M_A    0.0000
   3189 H          69.9220    6.4411   21.7850 H       254      M_A    0.0000
   3190 H          71.3941    6.7492   22.1396 H       254      M_A    0.0000
   3191 Si         68.9727    4.1512   22.9251 Si      255      M_A    0.0000
   3192 C          69.3250    5.7079   23.3214 C.3     255      M_A    0.0000
   3193 C          67.6598    4.1633   21.9347 C.3     255      M_A    0.0000
   3194 O          68.7485    3.3288   24.1104 O.3     255      M_A    0.0000
   3195 H          68.5919    6.1126   23.7745 H       255      M_A    0.0000
   3196 H          70.0868    5.7440   23.8915 H       255      M_A    0.0000
   3197 H          69.5089    6.2193   22.5395 H       255      M_A    0.0000
   3198 H          66.9114    4.5538   22.3750 H       255      M_A    0.0000
   3199 H          67.4271    3.2768   21.6766 H       255      M_A    0.0000
   3200 H          67.8382    4.6695   21.1481 H       255      M_A    0.0000
   3201 Si         68.9852    3.8331   25.2051 Si      256      M_A    0.0000
   3202 C          69.2579    5.4362   24.9589 C.3     256      M_A    0.0000
   3203 C          67.6265    3.6831   26.1195 C.3     256      M_A    0.0000
   3204 O          70.1319    3.1790   25.8287 O.3     256      M_A    0.0000
   3205 H          69.3847    5.8859   25.7885 H       256      M_A    0.0000
   3206 H          70.0361    5.5653   24.4257 H       256      M_A    0.0000
   3207 H          68.5176    5.8375   24.5143 H       256      M_A    0.0000
   3208 H          67.7383    4.1167   26.9597 H       256      M_A    0.0000
   3209 H          67.4304    2.7651   26.2793 H       256      M_A    0.0000
   3210 H          66.8808    4.0785   25.6787 H       256      M_A    0.0000
   3211 Si         70.9464    3.8919   26.4093 Si      257      M_A    0.0000
   3212 C          72.4458    3.4167   25.9290 C.3     257      M_A    0.0000
   3213 C          70.7101    5.4335   25.8874 C.3     257      M_A    0.0000
   3214 O          70.7807    3.7791   27.8555 O.3     257      M_A    0.0000
   3215 H          73.1131    3.9826   26.3044 H       257      M_A    0.0000
   3216 H          72.6189    2.5229   26.2077 H       257      M_A    0.0000
   3217 H          72.5222    3.4571   24.9806 H       257      M_A    0.0000
   3218 H          71.3615    6.0179   26.2625 H       257      M_A    0.0000
   3219 H          69.8466    5.7442   26.1413 H       257      M_A    0.0000
   3220 H          70.7808    5.4806   24.9389 H       257      M_A    0.0000
   3221 Si         71.7046    4.1679   28.5654 Si      258      M_A    0.0000
   3222 C          71.8966    3.0648   29.7699 C.3     258      M_A    0.0000
   3223 C          73.0681    4.1590   27.6459 C.3     258      M_A    0.0000
   3224 O          71.4158    5.4987   29.0917 O.2     258      M_A    0.0000
   3225 H          72.6452    3.2891   30.3137 H       258      M_A    0.0000
   3226 H          71.1221    3.0350   30.3231 H       258      M_A    0.0000
   3227 H          72.0425    2.1959   29.4084 H       258      M_A    0.0000
   3228 H          73.8275    4.3934   28.1702 H       258      M_A    0.0000
   3229 H          72.9933    4.7829   26.9304 H       258      M_A    0.0000
   3230 H          73.2180    3.2939   27.2773 H       258      M_A    0.0000
   3231 Si         78.2427    0.7900   -1.2842 Si      259      M_A    0.0000
   3232 C          79.1078    2.2075   -1.6714 C.3     259      M_A    0.0000
   3233 C          76.5904    1.1955   -1.1700 C.3     259      M_A    0.0000
   3234 O          78.7530    0.1521   -0.0098 O.3     259      M_A    0.0000
   3235 H          78.9866    2.8912   -0.9698 H       259      M_A    0.0000
   3236 H          80.0723    2.0138   -1.7537 H       259      M_A    0.0000
   3237 H          78.7906    2.5853   -2.5267 H       259      M_A    0.0000
   3238 H          76.4460    1.8699   -0.4638 H       259      M_A    0.0000
   3239 H          76.0514    0.3973   -0.9528 H       259      M_A    0.0000
   3240 H          76.2648    1.5698   -2.0236 H       259      M_A    0.0000
   3241 Si         79.0608    0.9256    0.9540 Si      260      M_A    0.0000
   3242 C          77.8880    0.7122    2.1732 C.3     260      M_A    0.0000
   3243 C          80.5621    0.4007    1.5691 C.3     260      M_A    0.0000
   3244 O          79.1207    2.3616    0.4786 O.3     260      M_A    0.0000
   3245 H          78.1175    1.2433    2.9730 H       260      M_A    0.0000
   3246 H          76.9991    0.9993    1.8537 H       260      M_A    0.0000
   3247 H          77.8329   -0.2369    2.4399 H       260      M_A    0.0000
   3248 H          80.8162    0.9290    2.3633 H       260      M_A    0.0000
   3249 H          81.2703    0.5017    0.8887 H       260      M_A    0.0000
   3250 H          80.5160   -0.5494    1.8338 H       260      M_A    0.0000
   3251 Si         78.3745    2.6899   -0.4998 Si      261      M_A    0.0000
   3252 C          79.0210    1.9628   -1.9002 C.3     261      M_A    0.0000
   3253 C          76.8355    2.0122   -0.2167 C.3     261      M_A    0.0000
   3254 O          78.3085    4.1966   -0.6297 O.3     261      M_A    0.0000
   3255 H          78.4402    2.1331   -2.6800 H       261      M_A    0.0000
   3256 H          79.9186    2.3243   -2.0960 H       261      M_A    0.0000
   3257 H          79.0967    0.9856   -1.7808 H       261      M_A    0.0000
   3258 H          76.2346    2.1830   -0.9810 H       261      M_A    0.0000
   3259 H          76.4278    2.4033    0.5930 H       261      M_A    0.0000
   3260 H          76.9039    1.0352   -0.0917 H       261      M_A    0.0000
   3261 Si         77.5314    4.6781   -1.5165 Si      262      M_A    0.0000
   3262 C          78.4574    4.9217   -2.9275 C.3     262      M_A    0.0000
   3263 C          76.3522    3.4945   -1.8576 C.3     262      M_A    0.0000
   3264 O          76.9069    5.9669   -1.0261 O.3     262      M_A    0.0000
   3265 H          77.8854    5.2340   -3.6689 H       262      M_A    0.0000
   3266 H          79.1590    5.5980   -2.7696 H       262      M_A    0.0000
   3267 H          78.8915    4.0802   -3.2076 H       262      M_A    0.0000
   3268 H          75.7609    3.7938   -2.5892 H       262      M_A    0.0000
   3269 H          75.7966    3.3185   -1.0607 H       262      M_A    0.0000
   3270 H          76.7793    2.6483   -2.1341 H       262      M_A    0.0000
   3271 Si         77.6753    6.9695   -0.8636 Si      263      M_A    0.0000
   3272 C          79.2719    6.3780   -0.7713 C.3     263      M_A    0.0000
   3273 C          77.5519    7.9380   -2.2616 C.3     263      M_A    0.0000
   3274 O          77.2874    7.7338    0.3842 O.3     263      M_A    0.0000
   3275 H          79.9159    7.1237   -0.7104 H       263      M_A    0.0000
   3276 H          79.3841    5.8044    0.0244 H       263      M_A    0.0000
   3277 H          79.4923    5.8464   -1.5736 H       263      M_A    0.0000
   3278 H          78.1801    8.6981   -2.2144 H       263      M_A    0.0000
   3279 H          76.6368    8.2961   -2.3560 H       263      M_A    0.0000
   3280 H          77.7666    7.4116   -3.0689 H       263      M_A    0.0000
   3281 Si         78.1272    8.5723    0.8465 Si      264      M_A    0.0000
   3282 C          79.6851    8.0074    0.4446 C.3     264      M_A    0.0000
   3283 C          77.8751   10.0484    0.0308 C.3     264      M_A    0.0000
   3284 O          77.9535    8.7216    2.3428 O.3     264      M_A    0.0000
   3285 H          80.3734    8.6574    0.7244 H       264      M_A    0.0000
   3286 H          79.8688    7.1474    0.8932 H       264      M_A    0.0000
   3287 H          79.7658    7.8750   -0.5305 H       264      M_A    0.0000
   3288 H          78.5467   10.7171    0.3068 H       264      M_A    0.0000
   3289 H          76.9777   10.4073    0.2323 H       264      M_A    0.0000
   3290 H          77.9497    9.9228   -0.9457 H       264      M_A    0.0000
   3291 Si         77.4934    7.7227    2.9851 Si      265      M_A    0.0000
   3292 C          75.9113    7.4365    2.4170 C.3     265      M_A    0.0000
   3293 C          78.4514    6.3715    2.5802 C.3     265      M_A    0.0000
   3294 O          77.5135    7.9987    4.4734 O.3     265      M_A    0.0000
   3295 H          75.5317    6.6284    2.8382 H       265      M_A    0.0000
   3296 H          75.3237    8.2017    2.6264 H       265      M_A    0.0000
   3297 H          75.9126    7.3015    1.4389 H       265      M_A    0.0000
   3298 H          78.0951    5.5536    3.0029 H       265      M_A    0.0000
   3299 H          79.3809    6.5006    2.8870 H       265      M_A    0.0000
   3300 H          78.4612    6.2330    1.6026 H       265      M_A    0.0000
   3301 Si         77.4081    7.0018    5.2590 Si      266      M_A    0.0000
   3302 C          75.8049    6.4318    5.1466 C.3     266      M_A    0.0000
   3303 C          78.4440    5.7802    4.6739 C.3     266      M_A    0.0000
   3304 O          77.7615    7.4065    6.6742 O.3     266      M_A    0.0000
   3305 H          75.6873    5.6157    5.6893 H       266      M_A    0.0000
   3306 H          75.1702    7.1150    5.4707 H       266      M_A    0.0000
   3307 H          75.5786    6.2138    4.2106 H       266      M_A    0.0000
   3308 H          78.3507    4.9581    5.2123 H       266      M_A    0.0000
   3309 H          79.3855    6.0743    4.7157 H       266      M_A    0.0000
   3310 H          78.2265    5.5600    3.7363 H       266      M_A    0.0000
   3311 Si         76.8465    7.3246    7.5563 Si      267      M_A    0.0000
   3312 C          75.5472    8.2979    7.0347 C.3     267      M_A    0.0000
   3313 C          76.3126    5.7054    7.5879 C.3     267      M_A    0.0000
   3314 O          77.3732    7.7678    8.9045 O.3     267      M_A    0.0000
   3315 H          74.7825    8.2177    7.6537 H       267      M_A    0.0000
   3316 H          75.8180    9.2465    6.9960 H       267      M_A    0.0000
   3317 H          75.2455    8.0220    6.1360 H       267      M_A    0.0000
   3318 H          75.5549    5.6014    8.2120 H       267      M_A    0.0000
   3319 H          77.0406    5.1057    7.8796 H       267      M_A    0.0000
   3320 H          76.0134    5.4208    6.6910 H       267      M_A    0.0000
   3321 Si         76.5399    8.2689    9.7269 Si      268      M_A    0.0000
   3322 C          75.4850    9.2703    8.8369 C.3     268      M_A    0.0000
   3323 C          75.6257    6.9828   10.3733 C.3     268      M_A    0.0000
   3324 O          77.2658    9.0400   10.8086 O.3     268      M_A    0.0000
   3325 H          74.7761    9.6336    9.4200 H       268      M_A    0.0000
   3326 H          75.9785   10.0270    8.4387 H       268      M_A    0.0000
   3327 H          75.0536    8.7608    8.1095 H       268      M_A    0.0000
   3328 H          74.9181    7.3250   10.9704 H       268      M_A    0.0000
   3329 H          76.2031    6.3732   10.8926 H       268      M_A    0.0000
   3330 H          75.1947    6.4656    9.6510 H       268      M_A    0.0000
   3331 Si         76.5655    9.7678   11.5844 Si      269      M_A    0.0000
   3332 C          75.7413   10.9015   10.6133 C.3     269      M_A    0.0000
   3333 C          75.4032    8.7586   12.3182 C.3     269      M_A    0.0000
   3334 O          77.4482   10.4451   12.6108 O.3     269      M_A    0.0000
   3335 H          75.1312   11.4505   11.1618 H       269      M_A    0.0000
   3336 H          76.3816   11.5034   10.1633 H       269      M_A    0.0000
   3337 H          75.2051   10.4427    9.9228 H       269      M_A    0.0000
   3338 H          74.7899    9.2879   12.8824 H       269      M_A    0.0000
   3339 H          75.8415    8.0807   12.8865 H       269      M_A    0.0000
   3340 H          74.8658    8.2927   11.6334 H       269      M_A    0.0000
   3341 Si         76.8764   11.1308   13.5190 Si      270      M_A    0.0000
   3342 C          75.7010   12.1043   12.7585 C.3     270      M_A    0.0000
   3343 C          76.0693   10.0385   14.5501 C.3     270      M_A    0.0000
   3344 O          77.8937   11.9633   14.2698 O.3     270      M_A    0.0000
   3345 H          75.1820   12.6100   13.4288 H       270      M_A    0.0000
   3346 H          76.1285   12.7490   12.1450 H       270      M_A    0.0000
   3347 H          75.0724   11.5478   12.2389 H       270      M_A    0.0000
   3348 H          75.5536   10.5252   15.2368 H       270      M_A    0.0000
   3349 H          76.7167    9.4494   15.0066 H       270      M_A    0.0000
   3350 H          75.4419    9.4751   14.0365 H       270      M_A    0.0000
   3351 Si         77.4769   12.6576   15.2528 Si      271      M_A    0.0000
   3352 C          75.7727   12.6490   15.1963 C.3     271      M_A    0.0000
   3353 C          77.9610   11.8611   16.6807 C.3     271      M_A    0.0000
   3354 O          78.0334   14.0634   15.1785 O.3     271      M_A    0.0000
   3355 H          75.3966   13.1209   15.9776 H       271      M_A    0.0000
   3356 H          75.4503   13.0967   14.3776 H       271      M_A    0.0000
   3357 H          75.4296   11.7232   15.2022 H       271      M_A    0.0000
   3358 H          77.6051   12.3259   17.4756 H       271      M_A    0.0000
   3359 H          78.9457   11.8384   16.7486 H       271      M_A    0.0000
   3360 H          77.6252   10.9327   16.6915 H       271      M_A    0.0000
   3361 Si         77.9295   14.7938   16.2166 Si      272      M_A    0.0000
   3362 C          78.2930   13.8164   17.5658 C.3     272      M_A    0.0000
   3363 C          79.1230   16.0068   16.1076 C.3     272      M_A    0.0000
   3364 O          76.5381   15.3828   16.3094 O.3     272      M_A    0.0000
   3365 H          78.2907   14.3529   18.3944 H       272      M_A    0.0000
   3366 H          77.6265   13.0943   17.6608 H       272      M_A    0.0000
   3367 H          79.1860   13.4067   17.4674 H       272      M_A    0.0000
   3368 H          79.1282   16.5635   16.9228 H       272      M_A    0.0000
   3369 H          78.9522   16.5930   15.3318 H       272      M_A    0.0000
   3370 H          80.0187   15.6045   16.0044 H       272      M_A    0.0000
   3371 Si         76.3730   16.3862   17.0762 Si      273      M_A    0.0000
   3372 C          77.7006   16.4345   18.1451 C.3     273      M_A    0.0000
   3373 C          76.4284   17.7854   16.1032 C.3     273      M_A    0.0000
   3374 O          75.0589   16.2712   17.8188 O.3     273      M_A    0.0000
   3375 H          77.6543   17.2352   18.7208 H       273      M_A    0.0000
   3376 H          77.7090   15.6351   18.7243 H       273      M_A    0.0000
   3377 H          78.5500   16.4658   17.6428 H       273      M_A    0.0000
   3378 H          76.3704   18.5985   16.6601 H       273      M_A    0.0000
   3379 H          75.6770   17.7928   15.4628 H       273      M_A    0.0000
   3380 H          77.2736   17.8212   15.5941 H       273      M_A    0.0000
   3381 Si         75.0924   16.3412   19.0900 Si      274      M_A    0.0000
   3382 C          76.3552   17.4079   19.5084 C.3     274      M_A    0.0000
   3383 C          73.6225   17.0382   19.6009 C.3     274      M_A    0.0000
   3384 O          75.2987   14.9660   19.6881 O.3     274      M_A    0.0000
   3385 H          76.3820   17.5487   20.4851 H       274      M_A    0.0000
   3386 H          77.2269   17.0429   19.2227 H       274      M_A    0.0000
   3387 H          76.2265   18.2856   19.0748 H       274      M_A    0.0000
   3388 H          73.6242   17.1756   20.5784 H       274      M_A    0.0000
   3389 H          72.8620   16.4524   19.3704 H       274      M_A    0.0000
   3390 H          73.4846   17.9147   19.1676 H       274      M_A    0.0000
   3391 Si         75.8286   14.8998   20.8444 Si      275      M_A    0.0000
   3392 C          75.4848   16.3644   21.6470 C.3     275      M_A    0.0000
   3393 C          75.0506   13.6400   21.6900 C.3     275      M_A    0.0000
   3394 O          77.3188   14.6604   20.7281 O.3     275      M_A    0.0000
   3395 H          75.8190   16.3386   22.5755 H       275      M_A    0.0000
   3396 H          75.9133   17.1232   21.1831 H       275      M_A    0.0000
   3397 H          74.5109   16.5247   21.6752 H       275      M_A    0.0000
   3398 H          75.3808   13.5892   22.6189 H       275      M_A    0.0000
   3399 H          75.2198   12.7716   21.2518 H       275      M_A    0.0000
   3400 H          74.0753   13.7912   21.7184 H       275      M_A    0.0000
   3401 Si         78.0933   15.6458   20.9546 Si      276      M_A    0.0000
   3402 C          79.3820   15.5471   19.8423 C.3     276      M_A    0.0000
   3403 C          77.2168   17.0699   20.6209 C.3     276      M_A    0.0000
   3404 O          78.5842   15.6119   22.3862 O.3     276      M_A    0.0000
   3405 H          79.9796   16.3277   19.9327 H       276      M_A    0.0000
   3406 H          79.9128   14.7293   19.9979 H       276      M_A    0.0000
   3407 H          79.0406   15.5270   18.9161 H       276      M_A    0.0000
   3408 H          77.7945   17.8644   20.7184 H       276      M_A    0.0000
   3409 H          76.4544   17.1616   21.2414 H       276      M_A    0.0000
   3410 H          76.8682   17.0548   19.6972 H       276      M_A    0.0000
   3411 Si         78.3996   16.6523   23.0971 Si      277      M_A    0.0000
   3412 C          76.7555   17.0818   22.9544 C.3     277      M_A    0.0000
   3413 C          78.6921   16.2188   24.7201 C.3     277      M_A    0.0000
   3414 O          79.3129   17.7704   22.6419 O.3     277      M_A    0.0000
   3415 H          76.5442   17.8474   23.5406 H       277      M_A    0.0000
   3416 H          76.5423   17.3341   22.0241 H       277      M_A    0.0000
   3417 H          76.1753   16.3263   23.2143 H       277      M_A    0.0000
   3418 H          78.4986   16.9764   25.3226 H       277      M_A    0.0000
   3419 H          79.6355   15.9557   24.8444 H       277      M_A    0.0000
   3420 H          78.1184   15.4604   24.9860 H       277      M_A    0.0000
   3421 Si         79.0671   18.9438   23.0718 Si      278      M_A    0.0000
   3422 C          77.6464   18.8554   24.0105 C.3     278      M_A    0.0000
   3423 C          80.3520   19.3890   24.1007 C.3     278      M_A    0.0000
   3424 O          78.9156   19.9078   21.9145 O.2     278      M_A    0.0000
   3425 H          77.4472   19.7300   24.4228 H       278      M_A    0.0000
   3426 H          76.8766   18.5927   23.4510 H       278      M_A    0.0000
   3427 H          77.7486   18.1909   24.7336 H       278      M_A    0.0000
   3428 H          80.1777   20.2684   24.5138 H       278      M_A    0.0000
   3429 H          81.1981   19.4449   23.5950 H       278      M_A    0.0000
   3430 H          80.4633   18.7262   24.8241 H       278      M_A    0.0000
   3431 Si         80.4213    0.4985    1.4646 Si      279      M_A    0.0000
   3432 C          79.3030    1.9351    1.9715 C.3     279      M_A    0.0000
   3433 C          79.6382   -1.1019    2.0945 C.3     279      M_A    0.0000
   3434 O          81.9846    0.6944    2.0410 O.3     279      M_A    0.0000
   3435 H          79.2069    1.9827    3.0603 H       279      M_A    0.0000
   3436 H          79.7150    2.8857    1.6199 H       279      M_A    0.0000
   3437 H          78.3023    1.8125    1.5462 H       279      M_A    0.0000
   3438 H          79.5451   -1.0821    3.1844 H       279      M_A    0.0000
   3439 H          80.2504   -1.9650    1.8164 H       279      M_A    0.0000
   3440 H          78.6386   -1.2346    1.6697 H       279      M_A    0.0000
   3441 Si         82.7686    1.7182    1.4672 Si      280      M_A    0.0000
   3442 C          84.1367    1.0813    0.9363 C.3     280      M_A    0.0000
   3443 C          82.0238    2.3965    0.2245 C.3     280      M_A    0.0000
   3444 O          82.9937    2.6478    2.5170 O.3     280      M_A    0.0000
   3445 H          84.6814    1.7358    0.5721 H       280      M_A    0.0000
   3446 H          84.5956    0.6718    1.6289 H       280      M_A    0.0000
   3447 H          83.9688    0.4484    0.2810 H       280      M_A    0.0000
   3448 H          82.5491    3.0631   -0.1462 H       280      M_A    0.0000
   3449 H          81.2207    2.7726    0.4920 H       280      M_A    0.0000
   3450 H          81.8488    1.7681   -0.4332 H       280      M_A    0.0000
   3451 Si         82.0710    3.3225    2.8652 Si      281      M_A    0.0000
   3452 C          82.6667    4.5625    3.6817 C.3     281      M_A    0.0000
   3453 C          81.3693    3.8910    1.5448 C.3     281      M_A    0.0000
   3454 O          81.1694    2.5583    3.6528 O.3     281      M_A    0.0000
   3455 H          81.9917    5.1496    3.9215 H       281      M_A    0.0000
   3456 H          83.0884    4.2718    4.4535 H       281      M_A    0.0000
   3457 H          83.2826    5.0256    3.1676 H       281      M_A    0.0000
   3458 H          80.6824    4.4719    1.7648 H       281      M_A    0.0000
   3459 H          81.0161    3.1992    1.0402 H       281      M_A    0.0000
   3460 H          81.9808    4.3518    1.0234 H       281      M_A    0.0000
   3461 Si         81.0397    2.8662    4.7999 Si      282      M_A    0.0000
   3462 C          81.3526    4.4310    4.9132 C.3     282      M_A    0.0000
   3463 C          79.5035    2.6400    5.1849 C.3     282      M_A    0.0000
   3464 O          81.9064    2.0957    5.6196 O.3     282      M_A    0.0000
   3465 H          81.2052    4.7314    5.7768 H       282      M_A    0.0000
   3466 H          82.2350    4.6035    4.6908 H       282      M_A    0.0000
   3467 H          80.8063    4.9147    4.3425 H       282      M_A    0.0000
   3468 H          79.3391    2.9239    6.0510 H       282      M_A    0.0000
   3469 H          79.2815    1.7428    5.1247 H       282      M_A    0.0000
   3470 H          78.9510    3.1177    4.6151 H       282      M_A    0.0000
   3471 Si         81.4061    1.3099    6.3678 Si      283      M_A    0.0000
   3472 C          79.8799    1.7457    6.5682 C.3     283      M_A    0.0000
   3473 C          81.4221   -0.1166    5.6439 C.3     283      M_A    0.0000
   3474 O          82.1115    1.2825    7.6002 O.3     283      M_A    0.0000
   3475 H          79.4312    1.1295    7.0942 H       283      M_A    0.0000
   3476 H          79.8291    2.5735    6.9806 H       283      M_A    0.0000
   3477 H          79.4459    1.7977    5.7514 H       283      M_A    0.0000
   3478 H          80.9876   -0.7499    6.1614 H       283      M_A    0.0000
   3479 H          82.2925   -0.4010    5.5042 H       283      M_A    0.0000
   3480 H          80.9934   -0.0708    4.8240 H       283      M_A    0.0000
   3481 Si         81.4668    1.2379    8.6052 Si      284      M_A    0.0000
   3482 C          81.8720    2.5078    9.4897 C.3     284      M_A    0.0000
   3483 C          79.9286    1.3922    8.1938 C.3     284      M_A    0.0000
   3484 O          81.7077    0.0190    9.2933 O.3     284      M_A    0.0000
   3485 H          81.3525    2.5511   10.2552 H       284      M_A    0.0000
   3486 H          82.7615    2.4577    9.7431 H       284      M_A    0.0000
   3487 H          81.7468    3.2912    9.0116 H       284      M_A    0.0000
   3488 H          79.3912    1.4253    8.9473 H       284      M_A    0.0000
   3489 H          79.6574    0.6757    7.6731 H       284      M_A    0.0000
   3490 H          79.7970    2.1719    7.7113 H       284      M_A    0.0000
   3491 Si         81.5074    0.0002   10.4711 Si      285      M_A    0.0000
   3492 C          82.8290   -0.5670   11.1717 C.3     285      M_A    0.0000
   3493 C          81.3068    1.5146   10.9461 C.3     285      M_A    0.0000
   3494 O          80.3710   -0.7988   10.7665 O.3     285      M_A    0.0000
   3495 H          82.7451   -0.5432   12.0938 H       285      M_A    0.0000
   3496 H          82.9828   -1.4436   10.9152 H       285      M_A    0.0000
   3497 H          83.5666   -0.0586   10.9361 H       285      M_A    0.0000
   3498 H          81.2089    1.5575   11.8660 H       285      M_A    0.0000
   3499 H          80.5516    1.8812   10.5548 H       285      M_A    0.0000
   3500 H          82.0393    2.0300   10.7097 H       285      M_A    0.0000
   3501 Si         80.2639   -1.2171   11.8806 Si      286      M_A    0.0000
   3502 C          79.0895   -2.3034   11.8725 C.3     286      M_A    0.0000
   3503 C          81.6294   -1.9677   12.2427 C.3     286      M_A    0.0000
   3504 O          79.9919   -0.1550   12.7833 O.3     286      M_A    0.0000
   3505 H          79.0089   -2.7027   12.7042 H       286      M_A    0.0000
   3506 H          78.2802   -1.9063   11.6597 H       286      M_A    0.0000
   3507 H          79.2635   -2.9668   11.2498 H       286      M_A    0.0000
   3508 H          81.5721   -2.3639   13.0778 H       286      M_A    0.0000
   3509 H          82.3371   -1.3702   12.2510 H       286      M_A    0.0000
   3510 H          81.8119   -2.6300   11.6213 H       286      M_A    0.0000
   3511 Si         79.7360   -0.4428   13.9144 Si      287      M_A    0.0000
   3512 C          78.2114   -0.0360   14.1780 C.3     287      M_A    0.0000
   3513 C          79.8526   -2.0332   14.0411 C.3     287      M_A    0.0000
   3514 O          80.6196    0.2222   14.8056 O.3     287      M_A    0.0000
   3515 H          77.9464   -0.2965   15.0263 H       287      M_A    0.0000
   3516 H          78.1022    0.8810   14.1068 H       287      M_A    0.0000
   3517 H          77.6536   -0.4466   13.5629 H       287      M_A    0.0000
   3518 H          79.6026   -2.3121   14.8882 H       287      M_A    0.0000
   3519 H          80.7234   -2.3091   13.8881 H       287      M_A    0.0000
   3520 H          79.3002   -2.4505   13.4255 H       287      M_A    0.0000
   3521 Si         80.7236   -0.2178   15.9117 Si      288      M_A    0.0000
   3522 C          79.8902   -1.5824   15.9636 C.3     288      M_A    0.0000
   3523 C          82.2666   -0.5716   16.1422 C.3     288      M_A    0.0000
   3524 O          80.2516    0.7235   16.8646 O.3     288      M_A    0.0000
   3525 H          79.9908   -1.9948   16.7868 H       288      M_A    0.0000
   3526 H          78.9888   -1.4188   15.8274 H       288      M_A    0.0000
   3527 H          80.1841   -2.1688   15.3095 H       288      M_A    0.0000
   3528 H          82.3891   -0.9747   16.9670 H       288      M_A    0.0000
   3529 H          82.7845    0.1958   16.1126 H       288      M_A    0.0000
   3530 H          82.5685   -1.1546   15.4887 H       288      M_A    0.0000
   3531 Si         79.6917    0.2986   17.8308 Si      289      M_A    0.0000
   3532 C          78.3885    1.1973   18.0620 C.3     289      M_A    0.0000
   3533 C          79.2124   -1.1891   17.4900 C.3     289      M_A    0.0000
   3534 O          80.5572    0.3277   18.9564 O.3     289      M_A    0.0000
   3535 H          77.8860    0.8678   18.7667 H       289      M_A    0.0000
   3536 H          78.6259    2.0712   18.2563 H       289      M_A    0.0000
   3537 H          77.8557    1.1996   17.3042 H       289      M_A    0.0000
   3538 H          78.7175   -1.5406   18.1895 H       289      M_A    0.0000
   3539 H          79.9420   -1.7405   17.3427 H       289      M_A    0.0000
   3540 H          78.6824   -1.1948   16.7303 H       289      M_A    0.0000
   3541 Si         80.0545    0.3354   20.0403 Si      290      M_A    0.0000
   3542 C          79.9389    1.8625   20.5027 C.3     290      M_A    0.0000
   3543 C          78.5729   -0.2475   19.8842 C.3     290      M_A    0.0000
   3544 O          80.8289   -0.4326   20.9499 O.3     290      M_A    0.0000
   3545 H          79.4975    1.9249   21.3145 H       290      M_A    0.0000
   3546 H          80.7801    2.2383   20.5983 H       290      M_A    0.0000
   3547 H          79.4658    2.3571   19.8786 H       290      M_A    0.0000
   3548 H          78.1190   -0.2046   20.6903 H       290      M_A    0.0000
   3549 H          78.5982   -1.1319   19.6102 H       290      M_A    0.0000
   3550 H          78.0952    0.2400   19.2579 H       290      M_A    0.0000
   3551 Si         80.2870   -0.8321   21.9370 Si      291      M_A    0.0000
   3552 C          79.0206   -1.6921   21.4724 C.3     291      M_A    0.0000
   3553 C          81.3080   -1.8159   22.6780 C.3     291      M_A    0.0000
   3554 O          79.9081    0.2558   22.7676 O.3     291      M_A    0.0000
   3555 H          78.6011   -2.0759   22.2034 H       291      M_A    0.0000
   3556 H          78.4070   -1.1561   21.0318 H       291      M_A    0.0000
   3557 H          79.2809   -2.3720   20.8995 H       291      M_A    0.0000
   3558 H          80.9095   -2.2008   23.4201 H       291      M_A    0.0000
   3559 H          82.0605   -1.3538   22.9575 H       291      M_A    0.0000
   3560 H          81.5759   -2.4962   22.1092 H       291      M_A    0.0000
   3561 Si         80.1910    0.1910   23.9267 Si      292      M_A    0.0000
   3562 C          78.9720    0.8174   24.7520 C.3     292      M_A    0.0000
   3563 C          80.3003   -1.3593   24.3061 C.3     292      M_A    0.0000
   3564 O          81.4064    0.8812   24.1782 O.3     292      M_A    0.0000
   3565 H          79.1178    0.7340   25.6628 H       292      M_A    0.0000
   3566 H          78.8725    1.7166   24.5535 H       292      M_A    0.0000
   3567 H          78.1809    0.3820   24.5455 H       292      M_A    0.0000
   3568 H          80.4583   -1.4627   25.2128 H       292      M_A    0.0000
   3569 H          80.9940   -1.7601   23.8414 H       292      M_A    0.0000
   3570 H          79.5136   -1.8019   24.0982 H       292      M_A    0.0000
   3571 Si         82.1143    0.4572   25.0425 Si      293      M_A    0.0000
   3572 C          81.3472   -0.7659   25.7315 C.3     293      M_A    0.0000
   3573 C          83.4326   -0.1174   24.3417 C.3     293      M_A    0.0000
   3574 O          82.4194    1.4811   25.9782 O.3     293      M_A    0.0000
   3575 H          81.8833   -1.1689   26.3702 H       293      M_A    0.0000
   3576 H          80.5716   -0.4728   26.1443 H       293      M_A    0.0000
   3577 H          81.1202   -1.4052   25.1007 H       293      M_A    0.0000
   3578 H          83.9879   -0.5144   24.9676 H       293      M_A    0.0000
   3579 H          83.9025    0.5630   23.9245 H       293      M_A    0.0000
   3580 H          83.2126   -0.7545   23.7063 H       293      M_A    0.0000
   3581 Si         83.2062    1.2254   26.8403 Si      294      M_A    0.0000
   3582 C          84.1606    0.0663   26.2881 C.3     294      M_A    0.0000
   3583 C          84.0995    2.5316   27.0750 C.3     294      M_A    0.0000
   3584 O          82.5302    0.8305   28.0252 O.3     294      M_A    0.0000
   3585 H          84.8289   -0.1250   26.9000 H       294      M_A    0.0000
   3586 H          83.6763   -0.7080   26.1333 H       294      M_A    0.0000
   3587 H          84.5618    0.3250   25.4943 H       294      M_A    0.0000
   3588 H          84.7673    2.3631   27.6941 H       294      M_A    0.0000
   3589 H          83.5788    3.2298   27.3902 H       294      M_A    0.0000
   3590 H          84.5005    2.7986   26.2838 H       294      M_A    0.0000
   3591 Si         81.4299    1.2610   28.2035 Si      295      M_A    0.0000
   3592 C          81.4084    2.7618   27.6500 C.3     295      M_A    0.0000
   3593 C          80.4259    0.3908   27.3125 C.3     295      M_A    0.0000
   3594 O          81.0942    1.2039   29.5823 O.2     295      M_A    0.0000
   3595 H          80.5562    3.1194   27.7102 H       295      M_A    0.0000
   3596 H          81.9848    3.2974   28.1387 H       295      M_A    0.0000
   3597 H          81.6687    2.7851   26.7613 H       295      M_A    0.0000
   3598 H          79.5646    0.7266   27.3696 H       295      M_A    0.0000
   3599 H          80.4155   -0.4897   27.5997 H       295      M_A    0.0000
   3600 H          80.6829    0.4062   26.4227 H       295      M_A    0.0000
   3601 Si         80.3800    6.0610   -1.2969 Si      296      M_A    0.0000
   3602 C          81.6843    6.9405   -2.2256 C.3     296      M_A    0.0000
   3603 C          78.7952    6.3179   -2.1685 C.3     296      M_A    0.0000
   3604 O          80.3041    6.5548    0.2460 O.3     296      M_A    0.0000
   3605 H          81.4741    7.9760   -2.2726 H       296      M_A    0.0000
   3606 H          82.6244    6.8122   -1.7582 H       296      M_A    0.0000
   3607 H          81.7491    6.5724   -3.2152 H       296      M_A    0.0000
   3608 H          78.5585    7.3476   -2.2150 H       296      M_A    0.0000
   3609 H          78.0097    5.8177   -1.6670 H       296      M_A    0.0000
   3610 H          78.8503    5.9477   -3.1579 H       296      M_A    0.0000
   3611 Si         79.4072    7.5367    0.5511 Si      297      M_A    0.0000
   3612 C          77.7647    6.7500    0.6955 C.3     297      M_A    0.0000
   3613 C          79.8615    8.2006    2.1912 C.3     297      M_A    0.0000
   3614 O          79.4229    8.6898   -0.5892 O.3     297      M_A    0.0000
   3615 H          77.0391    7.4563    1.0008 H       297      M_A    0.0000
   3616 H          77.4641    6.3439   -0.2337 H       297      M_A    0.0000
   3617 H          77.7869    5.9707    1.4104 H       297      M_A    0.0000
   3618 H          79.1552    8.9202    2.5104 H       297      M_A    0.0000
   3619 H          80.8132    8.6608    2.1554 H       297      M_A    0.0000
   3620 H          79.8907    7.4261    2.9111 H       297      M_A    0.0000
   3621 Si         80.0109    8.3888   -1.7831 Si      298      M_A    0.0000
   3622 C          81.5603    7.4926   -1.4181 C.3     298      M_A    0.0000
   3623 C          78.8935    7.2472   -2.6694 C.3     298      M_A    0.0000
   3624 O          80.2856    9.7419   -2.6340 O.3     298      M_A    0.0000
   3625 H          82.0246    7.1720   -2.3125 H       298      M_A    0.0000
   3626 H          82.2367    8.1166   -0.8966 H       298      M_A    0.0000
   3627 H          81.3655    6.6394   -0.8240 H       298      M_A    0.0000
   3628 H          79.3333    6.9243   -3.5754 H       298      M_A    0.0000
   3629 H          77.9771    7.7246   -2.8954 H       298      M_A    0.0000
   3630 H          78.6898    6.3931   -2.0795 H       298      M_A    0.0000
   3631 Si         80.5397   10.8861   -1.9355 Si      299      M_A    0.0000
   3632 C          80.3327   10.5003   -0.1619 C.3     299      M_A    0.0000
   3633 C          82.2915   11.3206   -2.2182 C.3     299      M_A    0.0000
   3634 O          79.5420   12.0722   -2.4128 O.3     299      M_A    0.0000
   3635 H          80.5866   11.3369    0.4333 H       299      M_A    0.0000
   3636 H          79.3301   10.2352    0.0463 H       299      M_A    0.0000
   3637 H          80.9576    9.6944    0.1191 H       299      M_A    0.0000
   3638 H          82.5634   12.1646   -1.6419 H       299      M_A    0.0000
   3639 H          82.4588   11.5453   -3.2380 H       299      M_A    0.0000
   3640 H          82.9230   10.5174   -1.9441 H       299      M_A    0.0000
   3641 Si         79.8644   13.3495   -2.0575 Si      300      M_A    0.0000
   3642 C          81.6715   13.4035   -1.7953 C.3     300      M_A    0.0000
   3643 C          79.4673   14.4279   -3.4776 C.3     300      M_A    0.0000
   3644 O          79.0506   13.7872   -0.7247 O.3     300      M_A    0.0000
   3645 H          81.9879   14.3905   -1.5850 H       300      M_A    0.0000
   3646 H          81.9480   12.7848   -0.9832 H       300      M_A    0.0000
   3647 H          82.1830   13.0708   -2.6593 H       300      M_A    0.0000
   3648 H          79.7635   15.4243   -3.2828 H       300      M_A    0.0000
   3649 H          78.4274   14.4209   -3.6704 H       300      M_A    0.0000
   3650 H          79.9715   14.0986   -4.3473 H       300      M_A    0.0000
   3651 Si         78.9742   15.1196   -0.4408 Si      301      M_A    0.0000
   3652 C          80.5865   15.8627   -0.8713 C.3     301      M_A    0.0000
   3653 C          77.7078   15.8407   -1.5423 C.3     301      M_A    0.0000
   3654 O          78.6079   15.3434    1.1232 O.3     301      M_A    0.0000
   3655 H          80.5611   16.9114   -0.7366 H       301      M_A    0.0000
   3656 H          81.3535   15.4667   -0.2601 H       301      M_A    0.0000
   3657 H          80.8287   15.6664   -1.8822 H       301      M_A    0.0000
   3658 H          77.6558   16.8892   -1.4138 H       301      M_A    0.0000
   3659 H          76.7554   15.4316   -1.3319 H       301      M_A    0.0000
   3660 H          77.9403   15.6444   -2.5554 H       301      M_A    0.0000
   3661 Si         78.4110   16.6248    1.5483 Si      302      M_A    0.0000
   3662 C          79.2928   16.8146    3.1369 C.3     302      M_A    0.0000
   3663 C          79.2004   17.7320    0.3284 C.3     302      M_A    0.0000
   3664 O          76.8258   16.9316    1.7006 O.3     302      M_A    0.0000
   3665 H          79.2322   17.8133    3.4794 H       302      M_A    0.0000
   3666 H          78.8715   16.1834    3.8736 H       302      M_A    0.0000
   3667 H          80.3150   16.5656    3.0271 H       302      M_A    0.0000
   3668 H          79.1389   18.7392    0.6451 H       302      M_A    0.0000
   3669 H          78.7240   17.6488   -0.6123 H       302      M_A    0.0000
   3670 H          80.2223   17.4861    0.2092 H       302      M_A    0.0000
   3671 Si         76.3840   18.1689    1.3321 Si      303      M_A    0.0000
   3672 C          76.8320   18.4082   -0.4227 C.3     303      M_A    0.0000
   3673 C          74.5613   18.1561    1.4531 C.3     303      M_A    0.0000
   3674 O          77.0411   19.3085    2.2807 O.3     303      M_A    0.0000
   3675 H          76.4505   19.3266   -0.7825 H       303      M_A    0.0000
   3676 H          77.8830   18.4148   -0.5405 H       303      M_A    0.0000
   3677 H          76.4330   17.6301   -1.0180 H       303      M_A    0.0000
   3678 H          74.1589   19.0722    1.1105 H       303      M_A    0.0000
   3679 H          74.2562   18.0121    2.4555 H       303      M_A    0.0000
   3680 H          74.1547   17.3772    0.8640 H       303      M_A    0.0000
   3681 Si         76.6173   20.5940    2.1091 Si      304      M_A    0.0000
   3682 C          75.1882   20.5504    0.9719 C.3     304      M_A    0.0000
   3683 C          76.0304   21.1964    3.7308 C.3     304      M_A    0.0000
   3684 O          77.8207   21.5121    1.5267 O.3     304      M_A    0.0000
   3685 H          74.7736   21.5166    0.8577 H       304      M_A    0.0000
   3686 H          75.4822   20.1991    0.0186 H       304      M_A    0.0000
   3687 H          74.4338   19.9106    1.3468 H       304      M_A    0.0000
   3688 H          75.6236   22.1686    3.6419 H       304      M_A    0.0000
   3689 H          76.8275   21.2309    4.4252 H       304      M_A    0.0000
   3690 H          75.2788   20.5588    4.1148 H       304      M_A    0.0000
   3691 Si         77.4902   22.7277    1.0024 Si      305      M_A    0.0000
   3692 C          78.4482   22.9359   -0.5391 C.3     305      M_A    0.0000
   3693 C          75.7181   22.6689    0.5624 C.3     305      M_A    0.0000
   3694 O          77.8055   23.9074    2.0696 O.3     305      M_A    0.0000
   3695 H          78.1783   23.8346   -1.0268 H       305      M_A    0.0000
   3696 H          79.4848   22.9678   -0.3312 H       305      M_A    0.0000
   3697 H          78.2643   22.1330   -1.2029 H       305      M_A    0.0000
   3698 H          75.4231   23.5652    0.0849 H       305      M_A    0.0000
   3699 H          75.1242   22.5414    1.4282 H       305      M_A    0.0000
   3700 H          75.5251   21.8652   -0.0977 H       305      M_A    0.0000
   3701 Si         77.0175   25.0206    2.0311 Si      306      M_A    0.0000
   3702 C          75.2807   24.4581    1.9668 C.3     306      M_A    0.0000
   3703 C          77.2628   25.9177    3.6034 C.3     306      M_A    0.0000
   3704 O          77.3996   25.9385    0.7497 O.3     306      M_A    0.0000
   3705 H          74.6203   25.2832    2.0060 H       306      M_A    0.0000
   3706 H          75.0954   23.9252    1.0721 H       306      M_A    0.0000
   3707 H          75.0644   23.8240    2.7853 H       306      M_A    0.0000
   3708 H          76.6206   26.7563    3.6577 H       306      M_A    0.0000
   3709 H          78.2613   26.2566    3.6863 H       306      M_A    0.0000
   3710 H          77.0531   25.2885    4.4275 H       306      M_A    0.0000
   3711 Si         77.3053   27.2922    0.8923 Si      307      M_A    0.0000
   3712 C          75.7132   27.8086    0.1604 C.3     307      M_A    0.0000
   3713 C          77.2461   27.6496    2.6829 C.3     307      M_A    0.0000
   3714 O          78.5620   28.0242    0.1748 O.3     307      M_A    0.0000
   3715 H          75.5549   28.8441    0.3059 H       307      M_A    0.0000
   3716 H          75.7008   27.6123   -0.8789 H       307      M_A    0.0000
   3717 H          74.9104   27.2864    0.6096 H       307      M_A    0.0000
   3718 H          77.1019   28.6836    2.8516 H       307      M_A    0.0000
   3719 H          78.1491   27.3584    3.1502 H       307      M_A    0.0000
   3720 H          76.4484   27.1269    3.1405 H       307      M_A    0.0000
   3721 Si         78.4291   29.3461   -0.1360 Si      308      M_A    0.0000
   3722 C          79.0135   29.5647   -1.8530 C.3     308      M_A    0.0000
   3723 C          76.6460   29.7407   -0.0917 C.3     308      M_A    0.0000
   3724 O          79.2724   30.2586    0.9064 O.3     308      M_A    0.0000
   3725 H          78.8673   30.5624   -2.1719 H       308      M_A    0.0000
   3726 H          80.0441   29.3388   -1.9265 H       308      M_A    0.0000
   3727 H          78.4832   28.9278   -2.5104 H       308      M_A    0.0000
   3728 H          76.4781   30.7400   -0.3945 H       308      M_A    0.0000
   3729 H          76.2627   29.6200    0.8866 H       308      M_A    0.0000
   3730 H          76.1078   29.1044   -0.7433 H       308      M_A    0.0000
   3731 Si         79.4726   29.7619    2.1613 Si      309      M_A    0.0000
   3732 C          78.7770   30.9687    3.3434 C.3     309      M_A    0.0000
   3733 C          78.5070   28.2171    2.2974 C.3     309      M_A    0.0000
   3734 O          81.0529   29.5076    2.4223 O.2     309      M_A    0.0000
   3735 H          78.8422   30.6008    4.3328 H       309      M_A    0.0000
   3736 H          79.3038   31.8845    3.2930 H       309      M_A    0.0000
   3737 H          77.7584   31.1558    3.1281 H       309      M_A    0.0000
   3738 H          78.5697   27.8239    3.2772 H       309      M_A    0.0000
   3739 H          78.8725   27.4895    1.6223 H       309      M_A    0.0000
   3740 H          77.4875   28.3950    2.0786 H       309      M_A    0.0000
   3741 Si         84.0572    5.6744   -0.5015 Si      310      M_A    0.0000
   3742 C          85.3538    6.2019   -1.3696 C.3     310      M_A    0.0000
   3743 C          82.7345    6.5226   -0.9956 C.3     310      M_A    0.0000
   3744 O          84.2789    5.8065    0.9378 O.3     310      M_A    0.0000
   3745 H          85.5014    7.1321   -1.2209 H       310      M_A    0.0000
   3746 H          86.1419    5.7283   -1.1163 H       310      M_A    0.0000
   3747 H          85.2089    6.0698   -2.3029 H       310      M_A    0.0000
   3748 H          82.8580    7.4558   -0.8435 H       310      M_A    0.0000
   3749 H          81.9582    6.2406   -0.5189 H       310      M_A    0.0000
   3750 H          82.5808    6.3915   -1.9277 H       310      M_A    0.0000
   3751 Si         85.1270    6.6157    1.3111 Si      311      M_A    0.0000
   3752 C          85.8087    6.0155    2.6852 C.3     311      M_A    0.0000
   3753 C          86.2930    6.6777    0.1494 C.3     311      M_A    0.0000
   3754 O          84.5167    7.9252    1.5365 O.3     311      M_A    0.0000
   3755 H          86.5195    6.5783    2.9808 H       311      M_A    0.0000
   3756 H          85.1612    5.9577    3.3829 H       311      M_A    0.0000
   3757 H          86.1645    5.1443    2.5303 H       311      M_A    0.0000
   3758 H          87.0083    7.2465    0.4216 H       311      M_A    0.0000
   3759 H          85.9348    7.0154   -0.6674 H       311      M_A    0.0000
   3760 H          86.6505    5.8087   -0.0140 H       311      M_A    0.0000
   3761 Si         85.2668    8.8667    1.7903 Si      312      M_A    0.0000
   3762 C          86.5682    8.2561    2.5943 C.3     312      M_A    0.0000
   3763 C          85.7954    9.4758    0.3541 C.3     312      M_A    0.0000
   3764 O          84.5659    9.8767    2.5819 O.3     312      M_A    0.0000
   3765 H          87.2122    8.9399    2.7590 H       312      M_A    0.0000
   3766 H          86.3015    7.8865    3.4320 H       312      M_A    0.0000
   3767 H          86.9880    7.5703    2.0814 H       312      M_A    0.0000
   3768 H          86.4322   10.1707    0.4981 H       312      M_A    0.0000
   3769 H          85.0671    9.8346   -0.1463 H       312      M_A    0.0000
   3770 H          86.2126    8.7940   -0.1663 H       312      M_A    0.0000
   3771 Si         84.6695   11.0503    2.2276 Si      313      M_A    0.0000
   3772 C          85.2196   11.0489    0.6750 C.3     313      M_A    0.0000
   3773 C          83.1562   11.7008    2.2310 C.3     313      M_A    0.0000
   3774 O          85.5723   11.7741    3.1216 O.3     313      M_A    0.0000
   3775 H          85.2570   11.9375    0.3313 H       313      M_A    0.0000
   3776 H          86.0945   10.6721    0.6298 H       313      M_A    0.0000
   3777 H          84.6413   10.5379    0.1146 H       313      M_A    0.0000
   3778 H          83.1746   12.5954    1.9016 H       313      M_A    0.0000
   3779 H          82.7988   11.7134    3.1151 H       313      M_A    0.0000
   3780 H          82.5710   11.1919    1.6758 H       313      M_A    0.0000
   3781 Si         85.9630   12.8832    2.7600 Si      314      M_A    0.0000
   3782 C          87.4643   12.6886    2.1109 C.3     314      M_A    0.0000
   3783 C          84.9533   13.3946    1.5633 C.3     314      M_A    0.0000
   3784 O          85.9775   13.8110    3.8900 O.3     314      M_A    0.0000
   3785 H          87.7864   13.5132    1.7567 H       314      M_A    0.0000
   3786 H          88.0794   12.3855    2.7737 H       314      M_A    0.0000
   3787 H          87.4436   12.0495    1.4032 H       314      M_A    0.0000
   3788 H          85.2524   14.2258    1.2041 H       314      M_A    0.0000
   3789 H          84.0687   13.5133    1.8991 H       314      M_A    0.0000
   3790 H          84.9243   12.7579    0.8538 H       314      M_A    0.0000
   3791 Si         86.2437   14.9891    3.6558 Si      315      M_A    0.0000
   3792 C          87.7789   15.0378    3.0609 C.3     315      M_A    0.0000
   3793 C          85.2214   15.4981    2.4689 C.3     315      M_A    0.0000
   3794 O          86.1074   15.7928    4.8697 O.3     315      M_A    0.0000
   3795 H          88.0112   15.9261    2.8034 H       315      M_A    0.0000
   3796 H          88.4029   14.7428    3.7190 H       315      M_A    0.0000
   3797 H          87.8599   14.4758    2.2946 H       315      M_A    0.0000
   3798 H          85.4301   16.3906    2.2059 H       315      M_A    0.0000
   3799 H          84.3179   15.4780    2.7733 H       315      M_A    0.0000
   3800 H          85.2937   14.9376    1.7006 H       315      M_A    0.0000
   3801 Si         86.2172   17.0131    4.7596 Si      316      M_A    0.0000
   3802 C          86.3506   17.3524    3.1533 C.3     316      M_A    0.0000
   3803 C          84.8165   17.6847    5.3073 C.3     316      M_A    0.0000
   3804 O          87.3769   17.4897    5.5121 O.3     316      M_A    0.0000
   3805 H          86.3750   18.2948    3.0102 H       316      M_A    0.0000
   3806 H          87.1493   16.9734    2.7959 H       316      M_A    0.0000
   3807 H          85.6068   16.9982    2.6727 H       316      M_A    0.0000
   3808 H          84.8268   18.6302    5.1839 H       316      M_A    0.0000
   3809 H          84.6990   17.5042    6.2363 H       316      M_A    0.0000
   3810 H          84.0676   17.3317    4.8339 H       316      M_A    0.0000
   3811 Si         87.6462   18.6881    5.4441 Si      317      M_A    0.0000
   3812 C          89.2852   18.8196    5.3470 C.3     317      M_A    0.0000
   3813 C          87.0055   19.2575    4.0375 C.3     317      M_A    0.0000
   3814 O          87.1139   19.3962    6.6075 O.3     317      M_A    0.0000
   3815 H          89.5425   19.7301    5.2283 H       317      M_A    0.0000
   3816 H          89.6954   18.4927    6.1434 H       317      M_A    0.0000
   3817 H          89.6188   18.3180    4.6075 H       317      M_A    0.0000
   3818 H          87.2419   20.1720    3.9069 H       317      M_A    0.0000
   3819 H          86.0542   19.1921    4.0519 H       317      M_A    0.0000
   3820 H          87.3314   18.7574    3.2937 H       317      M_A    0.0000
   3821 Si         87.4028   20.5856    6.7311 Si      318      M_A    0.0000
   3822 C          87.5365   20.8946    8.3435 C.3     318      M_A    0.0000
   3823 C          88.8843   20.8061    6.0458 C.3     318      M_A    0.0000
   3824 O          86.3843   21.4248    6.1013 O.3     318      M_A    0.0000
   3825 H          87.8222   21.7924    8.4907 H       318      M_A    0.0000
   3826 H          86.6972   20.7711    8.7792 H       318      M_A    0.0000
   3827 H          88.1743   20.3104    8.7453 H       318      M_A    0.0000
   3828 H          89.1824   21.7030    6.1719 H       318      M_A    0.0000
   3829 H          88.8500   20.6297    5.1093 H       318      M_A    0.0000
   3830 H          89.5266   20.2216    6.4400 H       318      M_A    0.0000
   3831 Si         86.7497   22.1931    5.2127 Si      319      M_A    0.0000
   3832 C          88.3897   22.0809    5.1087 C.3     319      M_A    0.0000
   3833 C          86.1111   21.6465    3.7962 C.3     319      M_A    0.0000
   3834 O          86.3179   23.5580    5.5106 O.3     319      M_A    0.0000
   3835 H          88.7176   22.6127    4.3884 H       319      M_A    0.0000
   3836 H          88.7982   22.3833    5.9157 H       319      M_A    0.0000
   3837 H          88.6552   21.1777    4.9558 H       319      M_A    0.0000
   3838 H          86.4180   22.1743    3.0638 H       319      M_A    0.0000
   3839 H          85.1587   21.6894    3.8192 H       319      M_A    0.0000
   3840 H          86.3690   20.7419    3.6388 H       319      M_A    0.0000
   3841 Si         86.7984   24.1031    6.5033 Si      320      M_A    0.0000
   3842 C          87.7003   22.9754    7.2958 C.3     320      M_A    0.0000
   3843 C          87.8141   25.2859    5.9721 C.3     320      M_A    0.0000
   3844 O          85.7366   24.6417    7.3522 O.3     320      M_A    0.0000
   3845 H          88.1471   23.3667    8.0418 H       320      M_A    0.0000
   3846 H          87.1469   22.2672    7.6146 H       320      M_A    0.0000
   3847 H          88.3603   22.6052    6.7153 H       320      M_A    0.0000
   3848 H          88.2620   25.6984    6.7059 H       320      M_A    0.0000
   3849 H          87.3287   25.9576    5.5003 H       320      M_A    0.0000
   3850 H          88.4744   24.9234    5.3871 H       320      M_A    0.0000
   3851 Si         85.7922   25.8355    7.6445 Si      321      M_A    0.0000
   3852 C          85.2701   25.9862    9.1995 C.3     321      M_A    0.0000
   3853 C          87.3770   26.2813    7.5940 C.3     321      M_A    0.0000
   3854 O          84.9778   26.6240    6.7209 O.3     321      M_A    0.0000
   3855 H          85.3540   26.8887    9.4958 H       321      M_A    0.0000
   3856 H          84.3544   25.7300    9.2719 H       321      M_A    0.0000
   3857 H          85.7854   25.4335    9.7815 H       321      M_A    0.0000
   3858 H          87.4802   27.1865    7.8756 H       321      M_A    0.0000
   3859 H          87.7196   26.2014    6.7076 H       321      M_A    0.0000
   3860 H          87.8993   25.7297    8.1706 H       321      M_A    0.0000
   3861 Si         85.4672   27.6601    6.2730 Si      322      M_A    0.0000
   3862 C          87.0471   27.6988    6.7370 C.3     322      M_A    0.0000
   3863 C          85.4215   27.5557    4.6298 C.3     322      M_A    0.0000
   3864 O          84.7301   28.8242    6.7625 O.2     322      M_A    0.0000
   3865 H          87.4893   28.4549    6.3600 H       322      M_A    0.0000
   3866 H          87.1163   27.7529    7.6866 H       322      M_A    0.0000
   3867 H          87.5019   26.9129    6.4452 H       322      M_A    0.0000
   3868 H          85.8488   28.3104    4.2334 H       322      M_A    0.0000
   3869 H          84.5199   27.5242    4.3208 H       322      M_A    0.0000
   3870 H          85.8709   26.7693    4.3309 H       322      M_A    0.0000
   3871 Si         90.0424    0.3028    2.9630 Si      323      M_A    0.0000
   3872 C          88.6536    1.4471    3.5401 C.3     323      M_A    0.0000
   3873 C          89.6154   -1.4554    3.5085 C.3     323      M_A    0.0000
   3874 O          91.5354    0.7911    3.5522 O.3     323      M_A    0.0000
   3875 H          88.5589    1.4186    4.6297 H       323      M_A    0.0000
   3876 H          88.8555    2.4793    3.2385 H       323      M_A    0.0000
   3877 H          87.6969    1.1402    3.1069 H       323      M_A    0.0000
   3878 H          89.5294   -1.5105    4.5978 H       323      M_A    0.0000
   3879 H          90.3916   -2.1567    3.1880 H       323      M_A    0.0000
   3880 H          88.6618   -1.7720    3.0752 H       323      M_A    0.0000
   3881 Si         91.8840    2.1505    3.4017 Si      324      M_A    0.0000
   3882 C          91.4350    3.0303    5.0127 C.3     324      M_A    0.0000
   3883 C          93.7605    2.2326    3.1945 C.3     324      M_A    0.0000
   3884 O          91.0837    2.8162    2.0860 O.3     324      M_A    0.0000
   3885 H          91.7507    4.0773    4.9807 H       324      M_A    0.0000
   3886 H          90.3539    3.0011    5.1785 H       324      M_A    0.0000
   3887 H          91.9292    2.5515    5.8635 H       324      M_A    0.0000
   3888 H          94.0976    3.2723    3.1457 H       324      M_A    0.0000
   3889 H          94.0684    1.7269    2.2743 H       324      M_A    0.0000
   3890 H          94.2625    1.7511    4.0392 H       324      M_A    0.0000
   3891 Si         91.2199    4.2049    1.8732 Si      325      M_A    0.0000
   3892 C          92.9939    4.5981    1.4602 C.3     325      M_A    0.0000
   3893 C          90.1502    4.8468    0.4890 C.3     325      M_A    0.0000
   3894 O          90.7760    4.8389    3.3353 O.3     325      M_A    0.0000
   3895 H          93.1344    5.6633    1.3644 H       325      M_A    0.0000
   3896 H          93.6526    4.2364    2.2343 H       325      M_A    0.0000
   3897 H          93.2775    4.1367    0.5270 H       325      M_A    0.0000
   3898 H          90.2646    5.9144    0.3844 H       325      M_A    0.0000
   3899 H          89.1105    4.6337    0.6832 H       325      M_A    0.0000
   3900 H          90.4243    4.3863   -0.4474 H       325      M_A    0.0000
   3901 Si         90.7790    6.2247    3.4637 Si      326      M_A    0.0000
   3902 C          92.0422    6.8921    2.2674 C.3     326      M_A    0.0000
   3903 C          89.1015    6.8368    2.9311 C.3     326      M_A    0.0000
   3904 O          91.1228    6.6578    5.0228 O.3     326      M_A    0.0000
   3905 H          92.0373    7.9708    2.2723 H       326      M_A    0.0000
   3906 H          93.0319    6.5555    2.5340 H       326      M_A    0.0000
   3907 H          91.8270    6.5598    1.2636 H       326      M_A    0.0000
   3908 H          89.0695    7.9151    2.9422 H       326      M_A    0.0000
   3909 H          88.3349    6.4672    3.5942 H       326      M_A    0.0000
   3910 H          88.8765    6.5044    1.9296 H       326      M_A    0.0000
   3911 Si         90.0948    6.5702    5.9570 Si      327      M_A    0.0000
   3912 C          90.2198    8.0639    7.0641 C.3     327      M_A    0.0000
   3913 C          88.4848    6.6772    5.0248 C.3     327      M_A    0.0000
   3914 O          90.2142    5.1604    6.8141 O.3     327      M_A    0.0000
   3915 H          89.4011    8.0859    7.7662 H       327      M_A    0.0000
   3916 H          91.1442    8.0475    7.6201 H       327      M_A    0.0000
   3917 H          90.1873    8.9717    6.4818 H       327      M_A    0.0000
   3918 H          87.6502    6.6864    5.7082 H       327      M_A    0.0000
   3919 H          88.3730    5.8326    4.3630 H       327      M_A    0.0000
   3920 H          88.4466    7.5804    4.4358 H       327      M_A    0.0000
   3921 Si         89.0302    4.5483    7.2149 Si      328      M_A    0.0000
   3922 C          88.2596    5.6293    8.5226 C.3     328      M_A    0.0000
   3923 C          87.8894    4.5241    5.7417 C.3     328      M_A    0.0000
   3924 O          89.3332    3.0236    7.7806 O.3     328      M_A    0.0000
   3925 H          87.2992    5.2387    8.8206 H       328      M_A    0.0000
   3926 H          88.8922    5.6785    9.3951 H       328      M_A    0.0000
   3927 H          88.1136    6.6311    8.1493 H       328      M_A    0.0000
   3928 H          86.9256    4.1234    6.0142 H       328      M_A    0.0000
   3929 H          88.3010    3.9133    4.9534 H       328      M_A    0.0000
   3930 H          87.7423    5.5222    5.3592 H       328      M_A    0.0000
   3931 Si         90.4940    2.3931    7.3424 Si      329      M_A    0.0000
   3932 C          90.3367    2.1539    5.5011 C.3     329      M_A    0.0000
   3933 C          91.9127    3.5607    7.6525 C.3     329      M_A    0.0000
   3934 O          90.7007    0.9541    8.1319 O.3     329      M_A    0.0000
   3935 H          91.2423    1.7320    5.0942 H       329      M_A    0.0000
   3936 H          89.5191    1.4877    5.2738 H       329      M_A    0.0000
   3937 H          90.1554    3.0973    5.0099 H       329      M_A    0.0000
   3938 H          92.8328    3.1517    7.2654 H       329      M_A    0.0000
   3939 H          92.0365    3.7347    8.7101 H       329      M_A    0.0000
   3940 H          91.7368    4.5088    7.1685 H       329      M_A    0.0000
   3941 Si         90.9791    1.0016    9.4947 Si      330      M_A    0.0000
   3942 C          92.6897    1.7147    9.6891 C.3     330      M_A    0.0000
   3943 C          89.7690    2.1883   10.2692 C.3     330      M_A    0.0000
   3944 O          90.8660   -0.5094   10.1585 O.3     330      M_A    0.0000
   3945 H          92.9319    1.8419   10.7326 H       330      M_A    0.0000
   3946 H          93.4254    1.0614    9.2465 H       330      M_A    0.0000
   3947 H          92.7559    2.6787    9.2090 H       330      M_A    0.0000
   3948 H          89.9843    2.3198   11.3180 H       330      M_A    0.0000
   3949 H          88.7603    1.8178   10.1731 H       330      M_A    0.0000
   3950 H          89.8254    3.1539    9.7911 H       330      M_A    0.0000
   3951 Si         91.1282   -0.6361   11.5195 Si      331      M_A    0.0000
   3952 C          92.9763   -0.5480   11.7410 C.3     331      M_A    0.0000
   3953 C          90.3749    0.8401   12.3714 C.3     331      M_A    0.0000
   3954 O          90.5091   -2.0579   12.0952 O.3     331      M_A    0.0000
   3955 H          93.2348   -0.5693   12.7881 H       331      M_A    0.0000
   3956 H          93.4567   -1.3830   11.2552 H       331      M_A    0.0000
   3957 H          93.3663    0.3645   11.3172 H       331      M_A    0.0000
   3958 H          90.6095    0.8316   13.4243 H       331      M_A    0.0000
   3959 H          89.3016    0.8341   12.2621 H       331      M_A    0.0000
   3960 H          90.7562    1.7572   11.9498 H       331      M_A    0.0000
   3961 Si         90.1727   -2.1142   13.4445 Si      332      M_A    0.0000
   3962 C          89.6672   -0.3977   13.9644 C.3     332      M_A    0.0000
   3963 C          88.6850   -3.2253   13.6017 C.3     332      M_A    0.0000
   3964 O          91.4511   -2.6723   14.3338 O.3     332      M_A    0.0000
   3965 H          89.3262   -0.3957   14.9879 H       332      M_A    0.0000
   3966 H          90.4994    0.2840   13.8820 H       332      M_A    0.0000
   3967 H          88.8643   -0.0336   13.3422 H       332      M_A    0.0000
   3968 H          88.3350   -3.2493   14.6218 H       332      M_A    0.0000
   3969 H          88.9306   -4.2324   13.3027 H       332      M_A    0.0000
   3970 H          87.8789   -2.8707   12.9783 H       332      M_A    0.0000
   3971 Si         91.5786   -2.2081   15.6397 Si      333      M_A    0.0000
   3972 C          93.3743   -1.7897   15.9091 C.3     333      M_A    0.0000
   3973 C          90.5941   -0.6313   15.7687 C.3     333      M_A    0.0000
   3974 O          91.0482   -3.3512   16.7114 O.3     333      M_A    0.0000
   3975 H          93.5208   -1.3558   16.8858 H       333      M_A    0.0000
   3976 H          93.9853   -2.6759   15.8356 H       333      M_A    0.0000
   3977 H          93.7132   -1.0789   15.1715 H       333      M_A    0.0000
   3978 H          90.7150   -0.1867   16.7441 H       333      M_A    0.0000
   3979 H          89.5446   -0.8256   15.6114 H       333      M_A    0.0000
   3980 H          90.9237    0.0835   15.0306 H       333      M_A    0.0000
   3981 Si         90.3611   -2.9081   17.8378 Si      334      M_A    0.0000
   3982 C          90.0831   -1.0767   17.6358 C.3     334      M_A    0.0000
   3983 C          88.6969   -3.7465   17.8404 C.3     334      M_A    0.0000
   3984 O          91.2216   -3.2499   19.2086 O.3     334      M_A    0.0000
   3985 H          89.4897   -0.6905   18.4497 H       334      M_A    0.0000
   3986 H          91.0244   -0.5496   17.6214 H       334      M_A    0.0000
   3987 H          89.5623   -0.8712   16.7134 H       334      M_A    0.0000
   3988 H          88.0907   -3.3849   18.6562 H       334      M_A    0.0000
   3989 H          88.8102   -4.8140   17.9482 H       334      M_A    0.0000
   3990 H          88.1714   -3.5500   16.9187 H       334      M_A    0.0000
   3991 Si         90.9648   -2.4795   20.3389 Si      335      M_A    0.0000
   3992 C          92.1167   -1.0157   20.2886 C.3     335      M_A    0.0000
   3993 C          89.2190   -1.8440   20.1946 C.3     335      M_A    0.0000
   3994 O          91.1777   -3.3802   21.7101 O.3     335      M_A    0.0000
   3995 H          91.9124   -0.3433   21.1071 H       335      M_A    0.0000
   3996 H          93.1435   -1.3385   20.3621 H       335      M_A    0.0000
   3997 H          91.9956   -0.4689   19.3664 H       335      M_A    0.0000
   3998 H          88.9881   -1.1792   21.0122 H       335      M_A    0.0000
   3999 H          88.5152   -2.6615   20.2119 H       335      M_A    0.0000
   4000 H          89.0882   -1.2999   19.2721 H       335      M_A    0.0000
   4001 Si         90.3711   -3.0859   22.8054 Si      336      M_A    0.0000
   4002 C          90.0647   -1.2479   22.7935 C.3     336      M_A    0.0000
   4003 C          88.7382   -3.9438   22.5409 C.3     336      M_A    0.0000
   4004 O          91.1012   -3.5764   24.2065 O.3     336      M_A    0.0000
   4005 H          89.3836   -0.9712   23.5830 H       336      M_A    0.0000
   4006 H          90.9881   -0.7086   22.9366 H       336      M_A    0.0000
   4007 H          89.6320   -0.9413   21.8538 H       336      M_A    0.0000
   4008 H          88.0449   -3.6919   23.3281 H       336      M_A    0.0000
   4009 H          88.8693   -5.0147   22.5332 H       336      M_A    0.0000
   4010 H          88.3010   -3.6463   21.6004 H       336      M_A    0.0000
   4011 Si         90.3543   -3.5106   25.3790 Si      337      M_A    0.0000
   4012 C          91.2742   -2.4052   26.5639 C.3     337      M_A    0.0000
   4013 C          88.7352   -2.6877   24.9623 C.3     337      M_A    0.0000
   4014 O          90.1287   -5.0257   26.0037 O.3     337      M_A    0.0000
   4015 H          90.7041   -2.2598   27.4681 H       337      M_A    0.0000
   4016 H          92.2253   -2.8406   26.8280 H       337      M_A    0.0000
   4017 H          91.4526   -1.4380   26.1201 H       337      M_A    0.0000
   4018 H          88.1418   -2.5448   25.8518 H       337      M_A    0.0000
   4019 H          88.1699   -3.2917   24.2699 H       337      M_A    0.0000
   4020 H          88.9051   -1.7214   24.5131 H       337      M_A    0.0000
   4021 Si         90.6253   -5.2766   27.2794 Si      338      M_A    0.0000
   4022 C          90.9732   -3.6282   28.0757 C.3     338      M_A    0.0000
   4023 C          89.2709   -6.1108   28.2500 C.3     338      M_A    0.0000
   4024 O          91.9850   -6.2149   27.1938 O.3     338      M_A    0.0000
   4025 H          91.2946   -3.7600   29.0970 H       338      M_A    0.0000
   4026 H          91.7495   -3.1045   27.5399 H       338      M_A    0.0000
   4027 H          90.0863   -3.0137   28.0793 H       338      M_A    0.0000
   4028 H          89.5766   -6.2654   29.2730 H       338      M_A    0.0000
   4029 H          89.0306   -7.0699   27.8184 H       338      M_A    0.0000
   4030 H          88.3783   -5.5046   28.2542 H       338      M_A    0.0000
   4031 Si         93.0919   -5.8139   27.9361 Si      339      M_A    0.0000
   4032 C          92.4570   -4.9468   29.4583 C.3     339      M_A    0.0000
   4033 C          93.9848   -7.3558   28.4816 C.3     339      M_A    0.0000
   4034 O          94.0659   -4.8293   27.0313 O.3     339      M_A    0.0000
   4035 H          93.2734   -4.6757   30.1093 H       339      M_A    0.0000
   4036 H          91.9244   -4.0482   29.1885 H       339      M_A    0.0000
   4037 H          91.7871   -5.5887   30.0092 H       339      M_A    0.0000
   4038 H          94.8152   -7.1068   29.1236 H       339      M_A    0.0000
   4039 H          94.3647   -7.8959   27.6284 H       339      M_A    0.0000
   4040 H          93.3200   -8.0057   29.0292 H       339      M_A    0.0000
   4041 Si         94.8036   -3.8594   27.7037 Si      340      M_A    0.0000
   4042 C          95.5917   -4.6820   29.1782 C.3     340      M_A    0.0000
   4043 C          96.1645   -3.3022   26.5592 C.3     340      M_A    0.0000
   4044 O          93.8271   -2.6018   28.1527 O.3     340      M_A    0.0000
   4045 H          96.2362   -3.9913   29.6991 H       340      M_A    0.0000
   4046 H          94.8373   -5.0286   29.8673 H       340      M_A    0.0000
   4047 H          96.1860   -5.5276   28.8685 H       340      M_A    0.0000
   4048 H          96.8142   -2.5988   27.0560 H       340      M_A    0.0000
   4049 H          95.7522   -2.8246   25.6840 H       340      M_A    0.0000
   4050 H          96.7607   -4.1431   26.2407 H       340      M_A    0.0000
   4051 Si         94.3866   -1.6030   28.9440 Si      341      M_A    0.0000
   4052 C          95.3971   -2.4409   30.2666 C.3     341      M_A    0.0000
   4053 C          95.5483   -0.6234   27.8655 C.3     341      M_A    0.0000
   4054 O          93.2002   -0.6490   29.5914 O.3     341      M_A    0.0000
   4055 H          95.9142   -1.7108   30.8692 H       341      M_A    0.0000
   4056 H          94.7634   -3.0280   30.9130 H       341      M_A    0.0000
   4057 H          96.1335   -3.0941   29.8248 H       341      M_A    0.0000
   4058 H          96.0668    0.1234   28.4461 H       341      M_A    0.0000
   4059 H          95.0050   -0.1250   27.0778 H       341      M_A    0.0000
   4060 H          96.2853   -1.2706   27.4157 H       341      M_A    0.0000
   4061 Si         92.0208   -1.2705   29.9911 Si      342      M_A    0.0000
   4062 C          91.9514   -2.9296   29.1456 C.3     342      M_A    0.0000
   4063 C          92.1410   -1.5643   31.8273 C.3     342      M_A    0.0000
   4064 O          90.7153   -0.3308   29.6050 O.2     342      M_A    0.0000
   4065 H          91.0895   -3.4882   29.4753 H       342      M_A    0.0000
   4066 H          91.8885   -2.8075   28.0755 H       342      M_A    0.0000
   4067 H          92.8335   -3.5083   29.3722 H       342      M_A    0.0000
   4068 H          91.2808   -2.1103   32.1817 H       342      M_A    0.0000
   4069 H          92.1912   -0.6268   32.3589 H       342      M_A    0.0000
   4070 H          93.0237   -2.1384   32.0629 H       342      M_A    0.0000
   4071 Si         97.9031   -1.1301   -1.4479 Si      343      M_A    0.0000
   4072 C          99.6605   -1.7648   -1.6807 C.3     343      M_A    0.0000
   4073 C          97.5459   -1.0700    0.3999 C.3     343      M_A    0.0000
   4074 O          96.7905   -2.0744   -2.2634 O.3     343      M_A    0.0000
   4075 H          99.7664   -2.7648   -1.2597 H       343      M_A    0.0000
   4076 H          99.9147   -1.8094   -2.7399 H       343      M_A    0.0000
   4077 H         100.3745   -1.1091   -1.1816 H       343      M_A    0.0000
   4078 H          97.6323   -2.0636    0.8400 H       343      M_A    0.0000
   4079 H          96.5371   -0.6996    0.5833 H       343      M_A    0.0000
   4080 H          98.2527   -0.4120    0.9060 H       343      M_A    0.0000
   4081 Si         97.0752   -3.4450   -2.3984 Si      344      M_A    0.0000
   4082 C          95.4534   -4.3213   -2.7824 C.3     344      M_A    0.0000
   4083 C          98.2093   -3.6400   -3.8889 C.3     344      M_A    0.0000
   4084 O          97.7812   -4.0329   -1.0019 O.3     344      M_A    0.0000
   4085 H          95.6249   -5.3815   -2.9695 H       344      M_A    0.0000
   4086 H          94.7600   -4.2278   -1.9464 H       344      M_A    0.0000
   4087 H          94.9857   -3.8916   -3.6687 H       344      M_A    0.0000
   4088 H          98.4061   -4.6938   -4.0861 H       344      M_A    0.0000
   4089 H          99.1619   -3.1395   -3.7136 H       344      M_A    0.0000
   4090 H          97.7508   -3.2079   -4.7788 H       344      M_A    0.0000
   4091 Si         96.9269   -4.4150    0.0480 Si      345      M_A    0.0000
   4092 C          96.1289   -2.8485    0.7224 C.3     345      M_A    0.0000
   4093 C          95.5685   -5.4874   -0.6939 C.3     345      M_A    0.0000
   4094 O          97.7846   -5.2307    1.2284 O.3     345      M_A    0.0000
   4095 H          95.3986   -3.0916    1.4943 H       345      M_A    0.0000
   4096 H          96.8823   -2.1912    1.1570 H       345      M_A    0.0000
   4097 H          95.6152   -2.3070   -0.0724 H       345      M_A    0.0000
   4098 H          94.8330   -5.7547    0.0650 H       345      M_A    0.0000
   4099 H          95.9872   -6.4061   -1.1052 H       345      M_A    0.0000
   4100 H          95.0529   -4.9547   -1.4934 H       345      M_A    0.0000
   4101 Si         98.3154   -6.4895    0.8943 Si      346      M_A    0.0000
   4102 C          97.0714   -7.3438   -0.2319 C.3     346      M_A    0.0000
   4103 C          99.8888   -6.1917   -0.0963 C.3     346      M_A    0.0000
   4104 O          98.6133   -7.3808    2.2767 O.3     346      M_A    0.0000
   4105 H          97.4635   -8.2985   -0.5826 H       346      M_A    0.0000
   4106 H          96.1380   -7.5301    0.2997 H       346      M_A    0.0000
   4107 H          96.8549   -6.7252   -1.1033 H       346      M_A    0.0000
   4108 H         100.3069   -7.1359   -0.4457 H       346      M_A    0.0000
   4109 H         100.6382   -5.6900    0.5164 H       346      M_A    0.0000
   4110 H          99.6818   -5.5693   -0.9672 H       346      M_A    0.0000
   4111 Si         97.9555   -8.6170    2.4082 Si      347      M_A    0.0000
   4112 C          96.2442   -8.2715    3.1136 C.3     347      M_A    0.0000
   4113 C          97.7394   -9.3262    0.6774 C.3     347      M_A    0.0000
   4114 O          98.8355   -9.6425    3.3923 O.3     347      M_A    0.0000
   4115 H          95.6597   -9.1899    3.1700 H       347      M_A    0.0000
   4116 H          96.3208   -7.8509    4.1165 H       347      M_A    0.0000
   4117 H          95.7049   -7.5642    2.4828 H       347      M_A    0.0000
   4118 H          97.1687  -10.2544    0.7114 H       347      M_A    0.0000
   4119 H          98.7091   -9.5356    0.2252 H       347      M_A    0.0000
   4120 H          97.2052   -8.6226    0.0384 H       347      M_A    0.0000
   4121 Si         98.1776  -10.7742    3.9065 Si      348      M_A    0.0000
   4122 C          97.2716  -10.2375    5.4675 C.3     348      M_A    0.0000
   4123 C          96.8896  -11.3010    2.6379 C.3     348      M_A    0.0000
   4124 O          99.2765  -11.9950    4.2170 O.3     348      M_A    0.0000
   4125 H          96.6824  -11.0608    5.8716 H       348      M_A    0.0000
   4126 H          97.9806   -9.9156    6.2305 H       348      M_A    0.0000
   4127 H          96.5954   -9.4095    5.2531 H       348      M_A    0.0000
   4128 H          96.2969  -12.1341    3.0160 H       348      M_A    0.0000
   4129 H          97.3705  -11.6143    1.7110 H       348      M_A    0.0000
   4130 H          96.2122  -10.4766    2.4140 H       348      M_A    0.0000
   4131 Si         98.9834  -12.8825    5.2679 Si      349      M_A    0.0000
   4132 C         100.0971  -12.4269    6.7162 C.3     349      M_A    0.0000
   4133 C          97.1996  -12.5724    5.7852 C.3     349      M_A    0.0000
   4134 O          99.2202  -14.4630    4.7778 O.3     349      M_A    0.0000
   4135 H          99.8624  -13.0380    7.5879 H       349      M_A    0.0000
   4136 H         101.1446  -12.5842    6.4584 H       349      M_A    0.0000
   4137 H          99.9621  -11.3800    6.9894 H       349      M_A    0.0000
   4138 H          96.9383  -13.1848    6.6483 H       349      M_A    0.0000
   4139 H          96.5166  -12.8165    4.9713 H       349      M_A    0.0000
   4140 H          97.0549  -11.5260    6.0552 H       349      M_A    0.0000
   4141 Si         99.5394  -15.4101    5.7673 Si      350      M_A    0.0000
   4142 C         101.4163  -15.5493    5.8284 C.3     350      M_A    0.0000
   4143 C          98.9529  -14.7190    7.4178 C.3     350      M_A    0.0000
   4144 O          98.8205  -16.8789    5.4203 O.3     350      M_A    0.0000
   4145 H         101.7256  -16.2192    6.6308 H       350      M_A    0.0000
   4146 H         101.8024  -15.9400    4.8867 H       350      M_A    0.0000
   4147 H         101.8676  -14.5732    6.0082 H       350      M_A    0.0000
   4148 H          99.2396  -15.3812    8.2348 H       350      M_A    0.0000
   4149 H          97.8678  -14.6139    7.4253 H       350      M_A    0.0000
   4150 H          99.3960  -13.7401    7.6029 H       350      M_A    0.0000
   4151 Si         99.1659  -17.9787    6.2259 Si      351      M_A    0.0000
   4152 C         100.9687  -18.3915    5.8719 C.3     351      M_A    0.0000
   4153 C          99.0374  -17.4239    8.0208 C.3     351      M_A    0.0000
   4154 O          98.1594  -19.2741    5.9046 O.3     351      M_A    0.0000
   4155 H         101.3137  -19.1943    6.5236 H       351      M_A    0.0000
   4156 H         101.0923  -18.7119    4.8372 H       351      M_A    0.0000
   4157 H         101.6021  -17.5204    6.0417 H       351      M_A    0.0000
   4158 H          99.3647  -18.2178    8.6922 H       351      M_A    0.0000
   4159 H          98.0076  -17.1665    8.2695 H       351      M_A    0.0000
   4160 H          99.6643  -16.5497    8.1978 H       351      M_A    0.0000
   4161 Si         98.4083  -20.4770    6.5894 Si      352      M_A    0.0000
   4162 C         100.0949  -20.3179    7.4113 C.3     352      M_A    0.0000
   4163 C          97.1117  -20.6307    7.9462 C.3     352      M_A    0.0000
   4164 O          98.3543  -21.7705    5.5318 O.3     352      M_A    0.0000
   4165 H         100.3103  -21.1971    8.0188 H       352      M_A    0.0000
   4166 H         100.8792  -20.2185    6.6606 H       352      M_A    0.0000
   4167 H         100.1245  -19.4419    8.0597 H       352      M_A    0.0000
   4168 H          97.2997  -21.5128    8.5586 H       352      M_A    0.0000
   4169 H          96.1142  -20.7182    7.5149 H       352      M_A    0.0000
   4170 H          97.1313  -19.7557    8.5964 H       352      M_A    0.0000
   4171 Si         98.6014  -23.0514    6.0574 Si      353      M_A    0.0000
   4172 C          99.5974  -24.0036    4.7740 C.3     353      M_A    0.0000
   4173 C          99.6788  -22.8340    7.5863 C.3     353      M_A    0.0000
   4174 O          97.1615  -23.8198    6.4186 O.3     353      M_A    0.0000
   4175 H          99.8812  -24.9835    5.1581 H       353      M_A    0.0000
   4176 H          99.0132  -24.1470    3.8648 H       353      M_A    0.0000
   4177 H         100.5087  -23.4628    4.5172 H       353      M_A    0.0000
   4178 H          99.9634  -23.8031    7.9963 H       353      M_A    0.0000
   4179 H          99.1432  -22.2789    8.3567 H       353      M_A    0.0000
   4180 H         100.5904  -22.2893    7.3389 H       353      M_A    0.0000
   4181 Si         97.2115  -24.9145    7.3002 Si      354      M_A    0.0000
   4182 C          95.9822  -26.1967    6.6753 C.3     354      M_A    0.0000
   4183 C          98.9381  -25.6559    7.1792 C.3     354      M_A    0.0000
   4184 O          96.8561  -24.4235    8.8581 O.3     354      M_A    0.0000
   4185 H          96.0300  -27.1015    7.2815 H       354      M_A    0.0000
   4186 H          94.9653  -25.8064    6.7203 H       354      M_A    0.0000
   4187 H          96.2026  -26.4680    5.6426 H       354      M_A    0.0000
   4188 H          99.0131  -26.5558    7.7899 H       354      M_A    0.0000
   4189 H          99.6866  -24.9427    7.5251 H       354      M_A    0.0000
   4190 H          99.1684  -25.9254    6.1481 H       354      M_A    0.0000
   4191 Si         97.9301  -24.2717    9.7534 Si      355      M_A    0.0000
   4192 C          99.4561  -23.8480    8.7349 C.3     355      M_A    0.0000
   4193 C          97.5386  -22.7969   10.8567 C.3     355      M_A    0.0000
   4194 O          98.1480  -25.6701   10.6430 O.3     355      M_A    0.0000
   4195 H         100.3078  -23.6471    9.3849 H       355      M_A    0.0000
   4196 H          99.7164  -24.6741    8.0728 H       355      M_A    0.0000
   4197 H          99.2769  -22.9611    8.1264 H       355      M_A    0.0000
   4198 H          98.3727  -22.5864   11.5263 H       355      M_A    0.0000
   4199 H          96.6538  -22.9953   11.4620 H       355      M_A    0.0000
   4200 H          97.3531  -21.9065   10.2554 H       355      M_A    0.0000
   4201 Si         97.5697  -25.7232   11.9239 Si      356      M_A    0.0000
   4202 C          96.9742  -23.9871   12.3447 C.3     356      M_A    0.0000
   4203 C          96.0615  -26.8453   11.8142 C.3     356      M_A    0.0000
   4204 O          98.6796  -26.2848   13.0406 O.3     356      M_A    0.0000
   4205 H          96.4502  -23.9822   13.3006 H       356      M_A    0.0000
   4206 H          97.8169  -23.2986   12.4114 H       356      M_A    0.0000
   4207 H          96.2887  -23.6208   11.5800 H       356      M_A    0.0000
   4208 H          95.5291  -26.8667   12.7652 H       356      M_A    0.0000
   4209 H          96.3591  -27.8638   11.5641 H       356      M_A    0.0000
   4210 H          95.3730  -26.4886   11.0477 H       356      M_A    0.0000
   4211 Si         99.6242  -25.3685   13.5366 Si      357      M_A    0.0000
   4212 C          98.7782  -23.6896   13.6417 C.3     357      M_A    0.0000
   4213 C         100.0668  -25.9079   15.2856 C.3     357      M_A    0.0000
   4214 O         100.9682  -25.3237   12.5436 O.3     357      M_A    0.0000
   4215 H          99.4439  -22.9517   14.0896 H       357      M_A    0.0000
   4216 H          98.4962  -23.3398   12.6484 H       357      M_A    0.0000
   4217 H          97.8784  -23.7512   14.2545 H       357      M_A    0.0000
   4218 H         100.7444  -25.1904   15.7485 H       357      M_A    0.0000
   4219 H         100.5545  -26.8829   15.2740 H       357      M_A    0.0000
   4220 H          99.1714  -25.9769   15.9038 H       357      M_A    0.0000
   4221 Si        101.4212  -26.5419   12.0063 Si      358      M_A    0.0000
   4222 C         102.7496  -27.2076   13.1629 C.3     358      M_A    0.0000
   4223 C          99.9709  -27.7426   12.0333 C.3     358      M_A    0.0000
   4224 O         102.0068  -26.3128   10.4574 O.3     358      M_A    0.0000
   4225 H         103.0881  -28.1901   12.8336 H       358      M_A    0.0000
   4226 H         103.6094  -26.5376   13.1848 H       358      M_A    0.0000
   4227 H         102.3616  -27.3046   14.1772 H       358      M_A    0.0000
   4228 H         100.2838  -28.7300   11.6936 H       358      M_A    0.0000
   4229 H          99.1712  -27.3922   11.3805 H       358      M_A    0.0000
   4230 H          99.5736  -27.8415   13.0438 H       358      M_A    0.0000
   4231 Si        102.8527  -27.3040    9.9284 Si      359      M_A    0.0000
   4232 C         104.6138  -26.6426   10.0095 C.3     359      M_A    0.0000
   4233 C         102.7410  -28.8029   11.0625 C.3     359      M_A    0.0000
   4234 O         102.4029  -27.6775    8.3623 O.3     359      M_A    0.0000
   4235 H         105.3240  -27.4002    9.6777 H       359      M_A    0.0000
   4236 H         104.7236  -25.7657    9.3710 H       359      M_A    0.0000
   4237 H         104.8710  -26.3604   11.0308 H       359      M_A    0.0000
   4238 H         103.4340  -29.5804   10.7405 H       359      M_A    0.0000
   4239 H         101.7323  -29.2164   11.0530 H       359      M_A    0.0000
   4240 H         102.9919  -28.5280   12.0874 H       359      M_A    0.0000
   4241 Si        101.3248  -28.5638    8.1888 Si      360      M_A    0.0000
   4242 C         101.7745  -30.1734    9.0563 C.3     360      M_A    0.0000
   4243 C          99.8379  -27.8212    9.0739 C.3     360      M_A    0.0000
   4244 O         101.0224  -28.8006    6.5619 O.3     360      M_A    0.0000
   4245 H         100.9424  -30.8764    9.0164 H       360      M_A    0.0000
   4246 H         102.6388  -30.6368    8.5801 H       360      M_A    0.0000
   4247 H         102.0143  -29.9904   10.1041 H       360      M_A    0.0000
   4248 H          98.9880  -28.5026    9.0342 H       360      M_A    0.0000
   4249 H          99.5456  -26.8798    8.6082 H       360      M_A    0.0000
   4250 H         100.0713  -27.6304   10.1217 H       360      M_A    0.0000
   4251 Si        100.0467  -29.7516    6.2132 Si      361      M_A    0.0000
   4252 C         100.6628  -30.6534    4.6793 C.3     361      M_A    0.0000
   4253 C          99.9477  -30.9983    7.6209 C.3     361      M_A    0.0000
   4254 O          98.5760  -29.0042    5.9433 O.2     361      M_A    0.0000
   4255 H          99.9774  -31.4551    4.4041 H       361      M_A    0.0000
   4256 H         100.7431  -29.9659    3.8370 H       361      M_A    0.0000
   4257 H         101.6439  -31.0930    4.8609 H       361      M_A    0.0000
   4258 H          99.2557  -31.8032    7.3728 H       361      M_A    0.0000
   4259 H          99.6009  -30.5168    8.5355 H       361      M_A    0.0000
   4260 H         100.9264  -31.4391    7.8124 H       361      M_A    0.0000
   4261 Si        102.9278   -0.0508   -1.6020 Si      362      M_A    0.0000
   4262 C         104.6246   -0.7939   -1.9762 C.3     362      M_A    0.0000
   4263 C         102.7349    0.0492    0.2752 C.3     362      M_A    0.0000
   4264 O         101.6913   -0.9385   -2.3074 O.3     362      M_A    0.0000
   4265 H         104.7081   -1.7977   -1.5493 H       362      M_A    0.0000
   4266 H         104.7838   -0.8643   -3.0564 H       362      M_A    0.0000
   4267 H         105.4188   -0.1746   -1.5484 H       362      M_A    0.0000
   4268 H         102.8011   -0.9468    0.7229 H       362      M_A    0.0000
   4269 H         101.7656    0.4824    0.5397 H       362      M_A    0.0000
   4270 H         103.5229    0.6713    0.7105 H       362      M_A    0.0000
   4271 Si        100.7038   -1.4754   -1.4537 Si      363      M_A    0.0000
   4272 C         101.5588   -2.7120   -0.3088 C.3     363      M_A    0.0000
   4273 C         100.0428   -0.0577   -0.3932 C.3     363      M_A    0.0000
   4274 O          99.4861   -2.1995   -2.3523 O.3     363      M_A    0.0000
   4275 H         100.8523   -3.1083    0.4265 H       363      M_A    0.0000
   4276 H         101.9654   -3.5500   -0.8828 H       363      M_A    0.0000
   4277 H         102.3798   -2.2317    0.2322 H       363      M_A    0.0000
   4278 H          99.3223   -0.4297    0.3413 H       363      M_A    0.0000
   4279 H          99.5439    0.6895   -1.0177 H       363      M_A    0.0000
   4280 H         100.8587    0.4314    0.1474 H       363      M_A    0.0000
   4281 Si         98.2586   -1.5115   -2.4624 Si      364      M_A    0.0000
   4282 C          96.8804   -2.7553   -2.1090 C.3     364      M_A    0.0000
   4283 C          98.2232   -0.1986   -1.1036 C.3     364      M_A    0.0000
   4284 O          98.1054   -0.8310   -3.9882 O.3     364      M_A    0.0000
   4285 H          95.9050   -2.2598   -2.1090 H       364      M_A    0.0000
   4286 H          96.8677   -3.5416   -2.8697 H       364      M_A    0.0000
   4287 H          97.0251   -3.2223   -1.1301 H       364      M_A    0.0000
   4288 H          97.2602    0.3204   -1.0944 H       364      M_A    0.0000
   4289 H          99.0125    0.5420   -1.2638 H       364      M_A    0.0000
   4290 H          98.3724   -0.6571   -0.1213 H       364      M_A    0.0000
   4291 Si         98.3190    0.5591   -4.1077 Si      365      M_A    0.0000
   4292 C          97.0198    1.2291   -5.3053 C.3     365      M_A    0.0000
   4293 C          98.0006    1.3272   -2.4107 C.3     365      M_A    0.0000
   4294 O          99.8779    0.8661   -4.6463 O.3     365      M_A    0.0000
   4295 H          97.0912    2.3182   -5.3812 H       365      M_A    0.0000
   4296 H          97.1612    0.8039   -6.3035 H       365      M_A    0.0000
   4297 H          96.0123    0.9770   -4.9608 H       365      M_A    0.0000
   4298 H          98.0811    2.4172   -2.4600 H       365      M_A    0.0000
   4299 H          98.7279    0.9606   -1.6800 H       365      M_A    0.0000
   4300 H          96.9964    1.0754   -2.0565 H       365      M_A    0.0000
   4301 Si        100.6601   -0.1908   -4.5635 Si      366      M_A    0.0000
   4302 C         101.0999   -0.3895   -2.8668 C.3     366      M_A    0.0000
   4303 C          99.7047   -1.5927   -5.0470 C.3     366      M_A    0.0000
   4304 O         101.9221   -0.0075   -5.4723 O.3     366      M_A    0.0000
   4305 H         101.6534   -1.2376   -2.7358 H       366      M_A    0.0000
   4306 H         101.6505    0.4074   -2.5431 H       366      M_A    0.0000
   4307 H         100.2636   -0.4626   -2.2850 H       366      M_A    0.0000
   4308 H         100.2454   -2.4519   -4.9360 H       366      M_A    0.0000
   4309 H          99.4221   -1.5144   -6.0252 H       366      M_A    0.0000
   4310 H          98.8637   -1.6698   -4.4724 H       366      M_A    0.0000
   4311 Si        103.1035   -0.1944   -4.9198 Si      367      M_A    0.0000
   4312 C         104.1765    1.0651   -5.5312 C.3     367      M_A    0.0000
   4313 C         102.9164    0.0446   -3.1822 C.3     367      M_A    0.0000
   4314 O         103.6409   -1.6269   -5.2538 O.3     367      M_A    0.0000
   4315 H         105.0915    1.0075   -5.0813 H       367      M_A    0.0000
   4316 H         104.3069    0.9674   -6.5394 H       367      M_A    0.0000
   4317 H         103.7877    1.9907   -5.3435 H       367      M_A    0.0000
   4318 H         103.8198   -0.0223   -2.7107 H       367      M_A    0.0000
   4319 H         102.2942   -0.6625   -2.7874 H       367      M_A    0.0000
   4320 H         102.5233    0.9669   -2.9866 H       367      M_A    0.0000
   4321 Si        102.9179   -2.6560   -4.8613 Si      368      M_A    0.0000
   4322 C         101.3090   -2.0499   -4.4667 C.3     368      M_A    0.0000
   4323 C         102.7664   -3.7492   -6.2374 C.3     368      M_A    0.0000
   4324 O         103.5905   -3.3582   -3.6338 O.3     368      M_A    0.0000
   4325 H         100.6852   -2.8199   -4.2200 H       368      M_A    0.0000
   4326 H         101.3523   -1.4049   -3.6761 H       368      M_A    0.0000
   4327 H         100.9050   -1.5567   -5.2648 H       368      M_A    0.0000
   4328 H         102.1560   -4.5348   -6.0069 H       368      M_A    0.0000
   4329 H         103.6802   -4.1191   -6.5043 H       368      M_A    0.0000
   4330 H         102.3673   -3.2617   -7.0414 H       368      M_A    0.0000
   4331 Si        103.2313   -4.5977   -3.3684 Si      369      M_A    0.0000
   4332 C         101.5475   -4.7759   -3.8632 C.3     369      M_A    0.0000
   4333 C         104.2122   -5.6588   -4.3802 C.3     369      M_A    0.0000
   4334 O         103.4243   -4.9069   -1.8455 O.3     369      M_A    0.0000
   4335 H         101.2373   -5.7412   -3.7415 H       369      M_A    0.0000
   4336 H         100.9433   -4.1708   -3.3047 H       369      M_A    0.0000
   4337 H         101.4339   -4.5271   -4.8473 H       369      M_A    0.0000
   4338 H         103.9264   -6.6322   -4.2632 H       369      M_A    0.0000
   4339 H         105.1994   -5.5810   -4.1305 H       369      M_A    0.0000
   4340 H         104.1075   -5.4129   -5.3660 H       369      M_A    0.0000
   4341 Si        103.5759   -3.8832   -1.0301 Si      370      M_A    0.0000
   4342 C         104.9296   -2.9258   -1.6322 C.3     370      M_A    0.0000
   4343 C         102.1174   -2.8976   -1.1446 C.3     370      M_A    0.0000
   4344 O         103.8245   -4.3837    0.4328 O.3     370      M_A    0.0000
   4345 H         105.0484   -2.0796   -1.0730 H       370      M_A    0.0000
   4346 H         105.7967   -3.4638   -1.5898 H       370      M_A    0.0000
   4347 H         104.7692   -2.6465   -2.6014 H       370      M_A    0.0000
   4348 H         102.2103   -2.0512   -0.5809 H       370      M_A    0.0000
   4349 H         101.3049   -3.4188   -0.8111 H       370      M_A    0.0000
   4350 H         101.9476   -2.6182   -2.1122 H       370      M_A    0.0000
   4351 Si        102.7713   -4.7208    1.1489 Si      371      M_A    0.0000
   4352 C         101.9919   -3.2283    1.6748 C.3     371      M_A    0.0000
   4353 C         101.6561   -5.5705    0.0785 C.3     371      M_A    0.0000
   4354 O         103.2005   -5.6105    2.3640 O.3     371      M_A    0.0000
   4355 H         101.1279   -3.4323    2.1795 H       371      M_A    0.0000
   4356 H         102.6090   -2.6999    2.2938 H       371      M_A    0.0000
   4357 H         101.7599   -2.6417    0.8715 H       371      M_A    0.0000
   4358 H         100.7890   -5.7961    0.5684 H       371      M_A    0.0000
   4359 H         102.0725   -6.4409   -0.2560 H       371      M_A    0.0000
   4360 H         101.4230   -4.9917   -0.7302 H       371      M_A    0.0000
   4361 Si        102.2459   -6.1976    3.0568 Si      372      M_A    0.0000
   4362 C         101.7776   -5.0931    4.3500 C.3     372      M_A    0.0000
   4363 C         100.8614   -6.3974    1.9821 C.3     372      M_A    0.0000
   4364 O         102.7465   -7.5707    3.6194 O.3     372      M_A    0.0000
   4365 H         100.9906   -5.4721    4.8790 H       372      M_A    0.0000
   4366 H         102.5561   -4.9437    4.9939 H       372      M_A    0.0000
   4367 H         101.4969   -4.1891    3.9663 H       372      M_A    0.0000
   4368 H         100.0660   -6.7883    2.4894 H       372      M_A    0.0000
   4369 H         101.0927   -7.0269    1.2119 H       372      M_A    0.0000
   4370 H         100.5777   -5.4977    1.5906 H       372      M_A    0.0000
   4371 Si        101.8689   -8.3302    4.2429 Si      373      M_A    0.0000
   4372 C         102.2817   -8.3136    5.9578 C.3     373      M_A    0.0000
   4373 C         100.2875   -7.5715    4.0553 C.3     373      M_A    0.0000
   4374 O         101.8894   -9.7817    3.6553 O.3     373      M_A    0.0000
   4375 H         101.5901   -8.8347    6.4992 H       373      M_A    0.0000
   4376 H         103.1974   -8.7393    6.1108 H       373      M_A    0.0000
   4377 H         102.3070   -7.3560    6.3121 H       373      M_A    0.0000
   4378 H          99.5776   -8.0858    4.5792 H       373      M_A    0.0000
   4379 H         100.0122   -7.5540    3.0720 H       373      M_A    0.0000
   4380 H         100.3061   -6.6114    4.4032 H       373      M_A    0.0000
   4381 Si        102.8339  -10.5971    4.0782 Si      374      M_A    0.0000
   4382 C         104.3705   -9.9888    3.4615 C.3     374      M_A    0.0000
   4383 C         102.8724  -10.4912    5.8385 C.3     374      M_A    0.0000
   4384 O         102.5508  -12.0582    3.5909 O.3     374      M_A    0.0000
   4385 H         105.1474  -10.5481    3.8172 H       374      M_A    0.0000
   4386 H         104.3878  -10.0261    2.4410 H       374      M_A    0.0000
   4387 H         104.5164   -9.0207    3.7524 H       374      M_A    0.0000
   4388 H         103.6355  -11.0552    6.2160 H       374      M_A    0.0000
   4389 H         101.9950  -10.8286    6.2377 H       374      M_A    0.0000
   4390 H         103.0133   -9.5247    6.1374 H       374      M_A    0.0000
   4391 Si        103.4381  -12.9841    3.8928 Si      375      M_A    0.0000
   4392 C         103.1750  -14.3429    2.7992 C.3     375      M_A    0.0000
   4393 C         105.0347  -12.3140    3.5557 C.3     375      M_A    0.0000
   4394 O         103.2926  -13.4100    5.3928 O.3     375      M_A    0.0000
   4395 H         103.8826  -15.0645    2.9456 H       375      M_A    0.0000
   4396 H         102.2551  -14.7576    2.9568 H       375      M_A    0.0000
   4397 H         103.2296  -14.0369    1.8263 H       375      M_A    0.0000
   4398 H         105.7593  -13.0170    3.7091 H       375      M_A    0.0000
   4399 H         105.2254  -11.5169    4.1651 H       375      M_A    0.0000
   4400 H         105.0954  -12.0012    2.5853 H       375      M_A    0.0000
   4401 Si        104.0786  -14.3718    5.8323 Si      376      M_A    0.0000
   4402 C         104.5657  -15.3337    4.4362 C.3     376      M_A    0.0000
   4403 C         105.5223  -13.6091    6.4996 C.3     376      M_A    0.0000
   4404 O         103.3330  -15.2386    6.9024 O.3     376      M_A    0.0000
   4405 H         105.2329  -16.0558    4.7123 H       376      M_A    0.0000
   4406 H         103.7552  -15.7891    4.0135 H       376      M_A    0.0000
   4407 H         105.0098  -14.7436    3.7306 H       376      M_A    0.0000
   4408 H         106.1983  -14.3154    6.7947 H       376      M_A    0.0000
   4409 H         105.2831  -13.0345    7.3094 H       376      M_A    0.0000
   4410 H         105.9695  -13.0132    5.8009 H       376      M_A    0.0000
   4411 Si        103.9697  -16.2831    7.3918 Si      377      M_A    0.0000
   4412 C         104.6245  -17.1885    6.0268 C.3     377      M_A    0.0000
   4413 C         105.3249  -15.6758    8.3438 C.3     377      M_A    0.0000
   4414 O         102.9993  -17.1572    8.2558 O.3     377      M_A    0.0000
   4415 H         105.1875  -17.9751    6.3540 H       377      M_A    0.0000
   4416 H         103.8701  -17.5535    5.4431 H       377      M_A    0.0000
   4417 H         105.2187  -16.5900    5.4506 H       377      M_A    0.0000
   4418 H         105.8943  -16.4485    8.6923 H       377      M_A    0.0000
   4419 H         104.9888  -15.1374    9.1439 H       377      M_A    0.0000
   4420 H         105.9215  -15.0723    7.7753 H       377      M_A    0.0000
   4421 Si        102.9519  -18.4489    8.0005 Si      378      M_A    0.0000
   4422 C         102.4259  -18.6365    6.3273 C.3     378      M_A    0.0000
   4423 C         104.5971  -19.0721    8.1281 C.3     378      M_A    0.0000
   4424 O         101.9808  -19.1663    8.9978 O.3     378      M_A    0.0000
   4425 H         102.4369  -19.6207    6.0551 H       378      M_A    0.0000
   4426 H         101.4763  -18.2800    6.2074 H       378      M_A    0.0000
   4427 H         103.0454  -18.1252    5.6964 H       378      M_A    0.0000
   4428 H         104.6281  -20.0603    7.8724 H       378      M_A    0.0000
   4429 H         104.9444  -18.9759    9.0837 H       378      M_A    0.0000
   4430 H         105.2240  -18.5623    7.5032 H       378      M_A    0.0000
   4431 Si        102.4437  -19.4568   10.1967 Si      379      M_A    0.0000
   4432 C         103.3896  -20.9386   10.0517 C.3     379      M_A    0.0000
   4433 C         103.5372  -18.1557   10.6689 C.3     379      M_A    0.0000
   4434 O         101.2627  -19.6193   11.2122 O.3     379      M_A    0.0000
   4435 H         103.8294  -21.1730   10.9431 H       379      M_A    0.0000
   4436 H         102.7934  -21.7191    9.7719 H       379      M_A    0.0000
   4437 H         104.1264  -20.8276    9.3531 H       379      M_A    0.0000
   4438 H         103.9784  -18.3646   11.5659 H       379      M_A    0.0000
   4439 H         103.0292  -17.2742   10.7576 H       379      M_A    0.0000
   4440 H         104.2745  -18.0355    9.9723 H       379      M_A    0.0000
   4441 Si        101.4830  -19.2718   12.4638 Si      380      M_A    0.0000
   4442 C         102.4838  -17.8194   12.4393 C.3     380      M_A    0.0000
   4443 C          99.9253  -18.8486   13.1753 C.3     380      M_A    0.0000
   4444 O         102.1768  -20.4414   13.2402 O.3     380      M_A    0.0000
   4445 H         102.6292  -17.4669   13.3866 H       380      M_A    0.0000
   4446 H         103.3965  -18.0193   12.0268 H       380      M_A    0.0000
   4447 H         102.0354  -17.0833   11.8913 H       380      M_A    0.0000
   4448 H         100.0471  -18.5055   14.1294 H       380      M_A    0.0000
   4449 H          99.3099  -19.6632   13.2023 H       380      M_A    0.0000
   4450 H          99.4683  -18.1159   12.6298 H       380      M_A    0.0000
   4451 Si        103.1167  -21.1174   12.6113 Si      381      M_A    0.0000
   4452 C         102.5559  -22.7829   12.4592 C.3     381      M_A    0.0000
   4453 C         103.2578  -20.4392   10.9890 C.3     381      M_A    0.0000
   4454 O         104.4689  -21.0300   13.3963 O.3     381      M_A    0.0000
   4455 H         103.2200  -23.3379   11.9171 H       381      M_A    0.0000
   4456 H         102.4535  -23.2128   13.3800 H       381      M_A    0.0000
   4457 H         101.6521  -22.8158   11.9845 H       381      M_A    0.0000
   4458 H         103.9283  -20.9726   10.4334 H       381      M_A    0.0000
   4459 H         103.5746  -19.4692   11.0318 H       381      M_A    0.0000
   4460 H         102.3563  -20.4643   10.5094 H       381      M_A    0.0000
   4461 Si        105.5632  -21.4117   12.7697 Si      382      M_A    0.0000
   4462 C         105.4682  -20.7949   11.1198 C.3     382      M_A    0.0000
   4463 C         106.9277  -20.6281   13.5671 C.3     382      M_A    0.0000
   4464 O         105.6920  -22.9721   12.7992 O.3     382      M_A    0.0000
   4465 H         106.3260  -21.0055   10.6073 H       382      M_A    0.0000
   4466 H         104.6837  -21.2195   10.6224 H       382      M_A    0.0000
   4467 H         105.3397  -19.7816   11.1218 H       382      M_A    0.0000
   4468 H         107.7989  -20.8372   13.0771 H       382      M_A    0.0000
   4469 H         107.0148  -20.9531   14.5314 H       382      M_A    0.0000
   4470 H         106.8040  -19.6143   13.5773 H       382      M_A    0.0000
   4471 Si        105.4634  -23.5810   13.9450 Si      383      M_A    0.0000
   4472 C         106.9785  -23.5905   14.8483 C.3     383      M_A    0.0000
   4473 C         104.3012  -22.6011   14.8399 C.3     383      M_A    0.0000
   4474 O         104.9283  -25.0312   13.6943 O.3     383      M_A    0.0000
   4475 H         106.8409  -23.9927   15.7769 H       383      M_A    0.0000
   4476 H         107.6844  -24.1435   14.3595 H       383      M_A    0.0000
   4477 H         107.3345  -22.6401   14.9630 H       383      M_A    0.0000
   4478 H         104.1390  -22.9942   15.7683 H       383      M_A    0.0000
   4479 H         103.4080  -22.5632   14.3460 H       383      M_A    0.0000
   4480 H         104.6482  -21.6474   14.9545 H       383      M_A    0.0000
   4481 Si        104.8325  -25.4380   12.4448 Si      384      M_A    0.0000
   4482 C         103.4834  -24.5711   11.7101 C.3     384      M_A    0.0000
   4483 C         106.3110  -24.9487   11.6164 C.3     384      M_A    0.0000
   4484 O         104.6236  -26.9891   12.3912 O.3     384      M_A    0.0000
   4485 H         103.4067  -24.7998   10.7178 H       384      M_A    0.0000
   4486 H         102.6047  -24.8211   12.1668 H       384      M_A    0.0000
   4487 H         103.6161  -23.5619   11.7945 H       384      M_A    0.0000
   4488 H         106.2604  -25.1808   10.6233 H       384      M_A    0.0000
   4489 H         107.1212  -25.4242   12.0172 H       384      M_A    0.0000
   4490 H         106.4532  -23.9407   11.7005 H       384      M_A    0.0000
   4491 Si        103.4780  -27.4337   11.9162 Si      385      M_A    0.0000
   4492 C         103.0574  -28.8846   12.8270 C.3     385      M_A    0.0000
   4493 C         102.2564  -26.2062   12.2514 C.3     385      M_A    0.0000
   4494 O         103.6007  -27.7266   10.3827 O.2     385      M_A    0.0000
   4495 H         102.1404  -29.2337   12.5438 H       385      M_A    0.0000
   4496 H         103.7459  -29.6216   12.6662 H       385      M_A    0.0000
   4497 H         103.0259  -28.6840   13.8280 H       385      M_A    0.0000
   4498 H         101.3321  -26.5306   11.9629 H       385      M_A    0.0000
   4499 H         102.4666  -25.3434   11.7468 H       385      M_A    0.0000
   4500 H         102.2223  -25.9966   13.2505 H       385      M_A    0.0000
   4501 Si        105.9025    4.3024   -1.3506 Si      386      M_A    0.0000
   4502 C         107.3925    4.6565   -2.4392 C.3     386      M_A    0.0000
   4503 C         104.3706    4.9262   -2.2420 C.3     386      M_A    0.0000
   4504 O         106.0626    4.9922    0.1597 O.3     386      M_A    0.0000
   4505 H         107.4902    5.7249   -2.6190 H       386      M_A    0.0000
   4506 H         108.3055    4.3040   -1.9642 H       386      M_A    0.0000
   4507 H         107.2905    4.1591   -3.4014 H       386      M_A    0.0000
   4508 H         104.4405    5.9971   -2.4199 H       386      M_A    0.0000
   4509 H         103.4787    4.7348   -1.6492 H       386      M_A    0.0000
   4510 H         104.2584    4.4297   -3.2035 H       386      M_A    0.0000
   4511 Si        106.1912    6.3881    0.2255 Si      387      M_A    0.0000
   4512 C         104.4607    7.1049    0.3746 C.3     387      M_A    0.0000
   4513 C         107.1253    6.7920    1.8051 C.3     387      M_A    0.0000
   4514 O         106.9838    6.9625   -1.1252 O.3     387      M_A    0.0000
   4515 H         104.5030    8.1843    0.5022 H       387      M_A    0.0000
   4516 H         103.8787    6.8879   -0.5186 H       387      M_A    0.0000
   4517 H         103.9441    6.6822    1.2337 H       387      M_A    0.0000
   4518 H         107.1920    7.8686    1.9459 H       387      M_A    0.0000
   4519 H         108.1346    6.3881    1.7663 H       387      M_A    0.0000
   4520 H         106.6175    6.3683    2.6690 H       387      M_A    0.0000
   4521 Si        107.3596    8.3146   -1.1314 Si      388      M_A    0.0000
   4522 C         107.6559    8.8233    0.6530 C.3     388      M_A    0.0000
   4523 C         108.9941    8.4388   -2.0498 C.3     388      M_A    0.0000
   4524 O         106.1749    9.2432   -1.8501 O.3     388      M_A    0.0000
   4525 H         108.0211    9.8466    0.7039 H       388      M_A    0.0000
   4526 H         106.7340    8.7593    1.2269 H       388      M_A    0.0000
   4527 H         108.3967    8.1758    1.1175 H       388      M_A    0.0000
   4528 H         109.3716    9.4586   -2.0238 H       388      M_A    0.0000
   4529 H         108.8715    8.1452   -3.0901 H       388      M_A    0.0000
   4530 H         109.7394    7.7901   -1.5943 H       388      M_A    0.0000
   4531 Si        106.1471   10.6122   -1.5424 Si      389      M_A    0.0000
   4532 C         104.4857   11.2816   -2.1100 C.3     389      M_A    0.0000
   4533 C         106.2281   10.7689    0.3282 C.3     389      M_A    0.0000
   4534 O         107.4167   11.3998   -2.2841 O.3     389      M_A    0.0000
   4535 H         104.3787   12.3275   -1.8310 H       389      M_A    0.0000
   4536 H         104.3911   11.2037   -3.1909 H       389      M_A    0.0000
   4537 H         103.6716   10.7239   -1.6518 H       389      M_A    0.0000
   4538 H         106.1371   11.8101    0.6296 H       389      M_A    0.0000
   4539 H         107.1742   10.3849    0.7035 H       389      M_A    0.0000
   4540 H         105.4198   10.2095    0.7946 H       389      M_A    0.0000
   4541 Si        107.3994   12.8031   -2.2836 Si      390      M_A    0.0000
   4542 C         108.2546   13.3757   -3.8556 C.3     390      M_A    0.0000
   4543 C         105.6017   13.3425   -2.3708 C.3     390      M_A    0.0000
   4544 O         108.1559   13.3925   -0.9187 O.3     390      M_A    0.0000
   4545 H         108.2073   14.4588   -3.9446 H       390      M_A    0.0000
   4546 H         109.3008   13.0775   -3.8521 H       390      M_A    0.0000
   4547 H         107.7758   12.9427   -4.7313 H       390      M_A    0.0000
   4548 H         105.5299   14.4253   -2.4462 H       390      M_A    0.0000
   4549 H         105.0634   13.0244   -1.4806 H       390      M_A    0.0000
   4550 H         105.1140   12.9094   -3.2416 H       390      M_A    0.0000
   4551 Si        108.1088   14.7775   -0.6972 Si      391      M_A    0.0000
   4552 C         109.8811   15.4006   -0.6595 C.3     391      M_A    0.0000
   4553 C         107.2515   15.5540   -2.1779 C.3     391      M_A    0.0000
   4554 O         107.3062   15.1108    0.7265 O.3     391      M_A    0.0000
   4555 H         109.9042   16.4838   -0.5621 H       391      M_A    0.0000
   4556 H         110.4202   14.9693    0.1812 H       391      M_A    0.0000
   4557 H         110.4009   15.1318   -1.5767 H       391      M_A    0.0000
   4558 H         107.2504   16.6386   -2.0945 H       391      M_A    0.0000
   4559 H         106.2201   15.2143   -2.2441 H       391      M_A    0.0000
   4560 H         107.7625   15.2858   -3.1002 H       391      M_A    0.0000
   4561 Si        106.8473   16.4226    0.9214 Si      392      M_A    0.0000
   4562 C         105.4726   16.7272   -0.3228 C.3     392      M_A    0.0000
   4563 C         106.1009   16.5063    2.6437 C.3     392      M_A    0.0000
   4564 O         108.0995   17.5091    0.7371 O.3     392      M_A    0.0000
   4565 H         105.0282   17.7082   -0.1700 H       392      M_A    0.0000
   4566 H         105.8591   16.6805   -1.3387 H       392      M_A    0.0000
   4567 H         104.6887   15.9801   -0.2176 H       392      M_A    0.0000
   4568 H         105.6622   17.4853    2.8238 H       392      M_A    0.0000
   4569 H         106.8626   16.3277    3.3996 H       392      M_A    0.0000
   4570 H         105.3191   15.7585    2.7588 H       392      M_A    0.0000
   4571 Si        107.7686   18.8292    0.3946 Si      393      M_A    0.0000
   4572 C         106.0088   18.8141   -0.2637 C.3     393      M_A    0.0000
   4573 C         107.7880   19.8415    1.9775 C.3     393      M_A    0.0000
   4574 O         108.8449   19.4239   -0.7324 O.3     393      M_A    0.0000
   4575 H         105.6717   19.8257   -0.4788 H       393      M_A    0.0000
   4576 H         105.9483   18.2306   -1.1798 H       393      M_A    0.0000
   4577 H         105.3304   18.3793    0.4673 H       393      M_A    0.0000
   4578 H         107.4672   20.8626    1.7830 H       393      M_A    0.0000
   4579 H         108.7900   19.8716    2.3999 H       393      M_A    0.0000
   4580 H         107.1155   19.4101    2.7160 H       393      M_A    0.0000
   4581 Si        108.4564   20.5540   -1.4682 Si      394      M_A    0.0000
   4582 C         109.2747   20.4342   -3.1553 C.3     394      M_A    0.0000
   4583 C         106.5967   20.4505   -1.7159 C.3     394      M_A    0.0000
   4584 O         108.8962   21.9486   -0.6656 O.3     394      M_A    0.0000
   4585 H         108.9506   21.2506   -3.7970 H       394      M_A    0.0000
   4586 H         110.3572   20.4825   -3.0595 H       394      M_A    0.0000
   4587 H         109.0132   19.4968   -3.6418 H       394      M_A    0.0000
   4588 H         106.2480   21.2670   -2.3443 H       394      M_A    0.0000
   4589 H         106.0798   20.5085   -0.7604 H       394      M_A    0.0000
   4590 H         106.3263   19.5131   -2.1975 H       394      M_A    0.0000
   4591 Si        108.2243   23.1328   -1.0058 Si      395      M_A    0.0000
   4592 C         107.6656   22.9680   -2.7922 C.3     395      M_A    0.0000
   4593 C         106.6909   23.2386    0.0750 C.3     395      M_A    0.0000
   4594 O         109.2244   24.4503   -0.7901 O.3     395      M_A    0.0000
   4595 H         107.0739   23.8310   -3.0896 H       395      M_A    0.0000
   4596 H         108.5242   22.8958   -3.4563 H       395      M_A    0.0000
   4597 H         107.0541   22.0774   -2.9214 H       395      M_A    0.0000
   4598 H         106.0903   24.1040   -0.1960 H       395      M_A    0.0000
   4599 H         106.9675   23.3279    1.1234 H       395      M_A    0.0000
   4600 H         106.0763   22.3489   -0.0446 H       395      M_A    0.0000
   4601 Si        108.8965   25.6327   -1.4711 Si      396      M_A    0.0000
   4602 C         110.4785   26.2965   -2.2373 C.3     396      M_A    0.0000
   4603 C         107.7249   25.1710   -2.8657 C.3     396      M_A    0.0000
   4604 O         108.2076   26.7336   -0.4243 O.3     396      M_A    0.0000
   4605 H         110.2714   27.1776   -2.8407 H       396      M_A    0.0000
   4606 H         111.1923   26.5709   -1.4636 H       396      M_A    0.0000
   4607 H         110.9369   25.5469   -2.8789 H       396      M_A    0.0000
   4608 H         107.4925   26.0417   -3.4748 H       396      M_A    0.0000
   4609 H         106.7941   24.7731   -2.4672 H       396      M_A    0.0000
   4610 H         108.1742   24.4175   -3.5093 H       396      M_A    0.0000
   4611 Si        107.9389   28.0193   -0.9186 Si      397      M_A    0.0000
   4612 C         109.0434   29.2209    0.0124 C.3     397      M_A    0.0000
   4613 C         108.4489   28.0434   -2.7269 C.3     397      M_A    0.0000
   4614 O         106.3237   28.3892   -0.7270 O.3     397      M_A    0.0000
   4615 H         108.9298   30.2287   -0.3806 H       397      M_A    0.0000
   4616 H         108.7879   29.2344    1.0698 H       397      M_A    0.0000
   4617 H         110.0885   28.9349   -0.0858 H       397      M_A    0.0000
   4618 H         108.3298   29.0405   -3.1451 H       397      M_A    0.0000
   4619 H         107.8382   27.3537   -3.3056 H       397      M_A    0.0000
   4620 H         109.4920   27.7535   -2.8343 H       397      M_A    0.0000
   4621 Si        105.7570   29.3071   -1.6246 Si      398      M_A    0.0000
   4622 C         107.0195   29.6187   -2.9809 C.3     398      M_A    0.0000
   4623 C         104.2602   28.4799   -2.4032 C.3     398      M_A    0.0000
   4624 O         105.3422   30.7145   -0.8312 O.3     398      M_A    0.0000
   4625 H         106.6055   30.2704   -3.7471 H       398      M_A    0.0000
   4626 H         107.9100   30.0919   -2.5729 H       398      M_A    0.0000
   4627 H         107.3121   28.6835   -3.4537 H       398      M_A    0.0000
   4628 H         103.8209   29.1212   -3.1641 H       398      M_A    0.0000
   4629 H         103.5029   28.2730   -1.6502 H       398      M_A    0.0000
   4630 H         104.5436   27.5409   -2.8740 H       398      M_A    0.0000
   4631 Si        106.3842   31.4991   -0.3133 Si      399      M_A    0.0000
   4632 C         107.9814   30.9042   -1.1043 C.3     399      M_A    0.0000
   4633 C         106.0845   33.2686   -0.8694 C.3     399      M_A    0.0000
   4634 O         106.4340   31.3738    1.3494 O.3     399      M_A    0.0000
   4635 H         108.8177   31.5263   -0.7931 H       399      M_A    0.0000
   4636 H         108.1920   29.8769   -0.8148 H       399      M_A    0.0000
   4637 H         107.9112   30.9491   -2.1890 H       399      M_A    0.0000
   4638 H         106.9034   33.9125   -0.5561 H       399      M_A    0.0000
   4639 H         105.1621   33.6535   -0.4397 H       399      M_A    0.0000
   4640 H         106.0079   33.3214   -1.9534 H       399      M_A    0.0000
   4641 Si        107.3466   30.4639    1.9049 Si      400      M_A    0.0000
   4642 C         108.1159   29.5029    0.4853 C.3     400      M_A    0.0000
   4643 C         108.7046   31.4649    2.7320 C.3     400      M_A    0.0000
   4644 O         106.5754   29.4558    2.9872 O.2     400      M_A    0.0000
   4645 H         108.8874   28.8295    0.8522 H       400      M_A    0.0000
   4646 H         107.3616   28.9119   -0.0296 H       400      M_A    0.0000
   4647 H         108.5719   30.1809   -0.2331 H       400      M_A    0.0000
   4648 H         109.4815   30.8095    3.1197 H       400      M_A    0.0000
   4649 H         108.3019   32.0456    3.5591 H       400      M_A    0.0000
   4650 H         109.1626   32.1494    2.0211 H       400      M_A    0.0000
   4651 Si        109.5432    3.2460   -1.6978 Si      401      M_A    0.0000
   4652 C         110.7759    3.8320   -2.5335 C.3     401      M_A    0.0000
   4653 C         108.1954    3.6221   -2.4746 C.3     401      M_A    0.0000
   4654 O         109.5342    3.7316   -0.3626 O.3     401      M_A    0.0000
   4655 H         110.7112    4.7532   -2.6076 H       401      M_A    0.0000
   4656 H         111.5780    3.6282   -2.1169 H       401      M_A    0.0000
   4657 H         110.7898    3.4741   -3.3882 H       401      M_A    0.0000
   4658 H         108.1070    4.5414   -2.5482 H       401      M_A    0.0000
   4659 H         107.4565    3.2929   -2.0228 H       401      M_A    0.0000
   4660 H         108.2008    3.2635   -3.3291 H       401      M_A    0.0000
   4661 Si        110.1468    4.7322   -0.1340 Si      402      M_A    0.0000
   4662 C         111.6542    4.4903   -0.6139 C.3     402      M_A    0.0000
   4663 C         109.5199    5.8940   -1.0388 C.3     402      M_A    0.0000
   4664 O         110.0792    5.0482    1.2495 O.3     402      M_A    0.0000
   4665 H         112.1564    5.2623   -0.5135 H       402      M_A    0.0000
   4666 H         112.0506    3.8172   -0.1155 H       402      M_A    0.0000
   4667 H         111.6766    4.2458   -1.5075 H       402      M_A    0.0000
   4668 H         110.0025    6.6789   -0.9422 H       402      M_A    0.0000
   4669 H         108.6416    6.0593   -0.7942 H       402      M_A    0.0000
   4670 H         109.5352    5.6542   -1.9338 H       402      M_A    0.0000
   4671 Si        110.2996    6.1784    1.5701 Si      403      M_A    0.0000
   4672 C         109.0051    7.0424    1.1972 C.3     403      M_A    0.0000
   4673 C         110.4674    6.2001    3.1615 C.3     403      M_A    0.0000
   4674 O         111.4623    6.6613    0.9116 O.3     403      M_A    0.0000
   4675 H         109.1037    7.9180    1.4835 H       403      M_A    0.0000
   4676 H         108.8705    7.0484    0.2805 H       403      M_A    0.0000
   4677 H         108.2500    6.6897    1.6024 H       403      M_A    0.0000
   4678 H         110.5794    7.0680    3.4659 H       403      M_A    0.0000
   4679 H         111.2061    5.7031    3.4179 H       403      M_A    0.0000
   4680 H         109.7171    5.8446    3.5733 H       403      M_A    0.0000
   4681 Si        111.3162    7.5110    0.0836 Si      404      M_A    0.0000
   4682 C         112.5079    7.3584   -0.9736 C.3     404      M_A    0.0000
   4683 C         109.9400    7.2080   -0.6749 C.3     404      M_A    0.0000
   4684 O         111.3114    8.7962    0.6894 O.3     404      M_A    0.0000
   4685 H         112.4035    7.9586   -1.6717 H       404      M_A    0.0000
   4686 H         113.3253    7.5207   -0.5687 H       404      M_A    0.0000
   4687 H         112.5211    6.5025   -1.3287 H       404      M_A    0.0000
   4688 H         109.8120    7.8068   -1.3702 H       404      M_A    0.0000
   4689 H         109.2237    7.2805   -0.0916 H       404      M_A    0.0000
   4690 H         109.9446    6.3516   -1.0289 H       404      M_A    0.0000
   4691 Si        111.6018    9.7316    0.0042 Si      405      M_A    0.0000
   4692 C         112.9060    9.3266   -0.8302 C.3     405      M_A    0.0000
   4693 C         110.4023    9.9566   -1.0311 C.3     405      M_A    0.0000
   4694 O         111.8268   10.8818    0.8072 O.3     405      M_A    0.0000
   4695 H         113.1354    9.9997   -1.4240 H       405      M_A    0.0000
   4696 H         113.6237    9.1811   -0.2624 H       405      M_A    0.0000
   4697 H         112.7547    8.5523   -1.3162 H       405      M_A    0.0000
   4698 H         110.6086   10.6355   -1.6268 H       405      M_A    0.0000
   4699 H         109.6246   10.1874   -0.5833 H       405      M_A    0.0000
   4700 H         110.2425    9.1844   -1.5178 H       405      M_A    0.0000
   4701 Si        111.0574   11.0942    1.6970 Si      406      M_A    0.0000
   4702 C         111.2918    9.9690    2.8107 C.3     406      M_A    0.0000
   4703 C         111.4434   12.5101    2.3353 C.3     406      M_A    0.0000
   4704 O         109.7227   11.0827    1.2100 O.3     406      M_A    0.0000
   4705 H         110.7585   10.1274    3.5516 H       406      M_A    0.0000
   4706 H         111.0842    9.1306    2.4753 H       406      M_A    0.0000
   4707 H         112.1761    9.9636    3.0876 H       406      M_A    0.0000
   4708 H         110.9116   12.6918    3.0719 H       406      M_A    0.0000
   4709 H         111.3264   13.1893    1.7160 H       406      M_A    0.0000
   4710 H         112.3283   12.5132    2.6106 H       406      M_A    0.0000
   4711 Si        108.8405   11.1620    2.0125 Si      407      M_A    0.0000
   4712 C         107.4584   11.1596    1.2057 C.3     407      M_A    0.0000
   4713 C         108.8911    9.8387    2.9112 C.3     407      M_A    0.0000
   4714 O         108.9899   12.3371    2.7971 O.3     407      M_A    0.0000
   4715 H         106.7395   11.1578    1.7901 H       407      M_A    0.0000
   4716 H         107.3946   11.9106    0.6667 H       407      M_A    0.0000
   4717 H         107.3956   10.4068    0.6689 H       407      M_A    0.0000
   4718 H         108.1854    9.8248    3.5113 H       407      M_A    0.0000
   4719 H         109.6830    9.8009    3.3908 H       407      M_A    0.0000
   4720 H         108.8332    9.0816    2.3801 H       407      M_A    0.0000
   4721 Si        109.0548   13.3823    2.2207 Si      408      M_A    0.0000
   4722 C         110.0484   13.1842    0.9818 C.3     408      M_A    0.0000
   4723 C         107.5975   13.6998    1.6404 C.3     408      M_A    0.0000
   4724 O         109.5058   14.4040    3.0989 O.3     408      M_A    0.0000
   4725 H         110.0841   13.9531    0.4662 H       408      M_A    0.0000
   4726 H         110.9047   12.9916    1.2786 H       408      M_A    0.0000
   4727 H         109.7614   12.4879    0.4419 H       408      M_A    0.0000
   4728 H         107.6108   14.4734    1.1308 H       408      M_A    0.0000
   4729 H         106.9902   13.8151    2.3306 H       408      M_A    0.0000
   4730 H         107.3024   13.0052    1.1027 H       408      M_A    0.0000
   4731 Si        110.4514   15.0500    2.7564 Si      409      M_A    0.0000
   4732 C         110.9123   15.9268    4.0135 C.3     409      M_A    0.0000
   4733 C         111.6303   14.0250    2.4091 C.3     409      M_A    0.0000
   4734 O         110.1163   15.8642    1.6413 O.3     409      M_A    0.0000
   4735 H         111.6830   16.4012    3.8153 H       409      M_A    0.0000
   4736 H         110.2503   16.5306    4.2496 H       409      M_A    0.0000
   4737 H         111.0877   15.3832    4.7432 H       409      M_A    0.0000
   4738 H         112.4077   14.4819    2.1962 H       409      M_A    0.0000
   4739 H         111.3973   13.4931    1.6871 H       409      M_A    0.0000
   4740 H         111.8082   13.4751    3.1335 H       409      M_A    0.0000
   4741 Si        110.9385   16.6427    1.2581 Si      410      M_A    0.0000
   4742 C         111.4501   17.4641    2.5327 C.3     410      M_A    0.0000
   4743 C         112.1707   15.7951    0.6885 C.3     410      M_A    0.0000
   4744 O         110.3856   17.4984    0.2678 O.3     410      M_A    0.0000
   4745 H         112.1357   18.0405    2.2957 H       410      M_A    0.0000
   4746 H         110.7602   17.9647    2.8960 H       410      M_A    0.0000
   4747 H         111.7698   16.8884    3.1847 H       410      M_A    0.0000
   4748 H         112.8629   16.3562    0.4344 H       410      M_A    0.0000
   4749 H         111.9112   15.2989   -0.0498 H       410      M_A    0.0000
   4750 H         112.4928   15.2138    1.3343 H       410      M_A    0.0000
   4751 Si        110.9085   18.5600    0.0998 Si      411      M_A    0.0000
   4752 C         112.3880   18.4651    0.7027 C.3     411      M_A    0.0000
   4753 C         111.0315   18.7881   -1.4795 C.3     411      M_A    0.0000
   4754 O         110.1513   19.5882    0.7227 O.3     411      M_A    0.0000
   4755 H         112.8569   19.2477    0.5411 H       411      M_A    0.0000
   4756 H         112.3583   18.3262    1.6183 H       411      M_A    0.0000
   4757 H         112.8539   17.7644    0.3145 H       411      M_A    0.0000
   4758 H         111.4879   19.5736   -1.6610 H       411      M_A    0.0000
   4759 H         110.1916   18.8421   -1.8671 H       411      M_A    0.0000
   4760 H         111.4928   18.0884   -1.8749 H       411      M_A    0.0000
   4761 Si        110.2100   20.6835    0.2475 Si      412      M_A    0.0000
   4762 C         111.6147   20.8013   -0.5103 C.3     412      M_A    0.0000
   4763 C         109.0470   20.7930   -0.8464 C.3     412      M_A    0.0000
   4764 O         110.0741   21.6701    1.2607 O.3     412      M_A    0.0000
   4765 H         111.6814   21.6147   -0.9489 H       412      M_A    0.0000
   4766 H         112.3160   20.7358    0.0917 H       412      M_A    0.0000
   4767 H         111.7035   20.1264   -1.1390 H       412      M_A    0.0000
   4768 H         109.0902   21.6063   -1.2881 H       412      M_A    0.0000
   4769 H         108.2148   20.7225   -0.4452 H       412      M_A    0.0000
   4770 H         109.1273   20.1180   -1.4763 H       412      M_A    0.0000
   4771 Si        109.3864   22.6179    1.0210 Si      413      M_A    0.0000
   4772 C         109.4537   22.8705   -0.5579 C.3     413      M_A    0.0000
   4773 C         107.8812   22.2234    1.3952 C.3     413      M_A    0.0000
   4774 O         109.8316   23.7502    1.7547 O.3     413      M_A    0.0000
   4775 H         108.8857   23.5604   -0.8024 H       413      M_A    0.0000
   4776 H         110.3148   23.0961   -0.8152 H       413      M_A    0.0000
   4777 H         109.1989   22.1093   -1.0210 H       413      M_A    0.0000
   4778 H         107.2988   22.9074    1.1687 H       413      M_A    0.0000
   4779 H         107.8031   22.0625    2.3044 H       413      M_A    0.0000
   4780 H         107.6211   21.4601    0.9387 H       413      M_A    0.0000
   4781 Si        110.7796   24.3441    1.3335 Si      414      M_A    0.0000
   4782 C         112.0865   23.6635    1.9581 C.3     414      M_A    0.0000
   4783 C         110.8165   24.1240   -0.2512 C.3     414      M_A    0.0000
   4784 O         110.6906   25.7212    1.6717 O.3     414      M_A    0.0000
   4785 H         112.8534   24.0514    1.6121 H       414      M_A    0.0000
   4786 H         112.0980   23.7648    2.8790 H       414      M_A    0.0000
   4787 H         112.1077   22.7580    1.7622 H       414      M_A    0.0000
   4788 H         111.5717   24.5162   -0.6176 H       414      M_A    0.0000
   4789 H         110.0695   24.5005   -0.6498 H       414      M_A    0.0000
   4790 H         110.8335   23.2201   -0.4545 H       414      M_A    0.0000
   4791 Si        110.8442   26.5173    0.7935 Si      415      M_A    0.0000
   4792 C         112.0127   25.9674   -0.1516 C.3     415      M_A    0.0000
   4793 C         109.4918   26.5529   -0.0616 C.3     415      M_A    0.0000
   4794 O         111.1598   27.7934    1.3325 O.3     415      M_A    0.0000
   4795 H         112.1276   26.5221   -0.8848 H       415      M_A    0.0000
   4796 H         112.8141   25.9262    0.3117 H       415      M_A    0.0000
   4797 H         111.8089   25.1182   -0.4616 H       415      M_A    0.0000
   4798 H         109.5835   27.1130   -0.7939 H       415      M_A    0.0000
   4799 H         108.7875   26.8613    0.4556 H       415      M_A    0.0000
   4800 H         109.2795   25.7056   -0.3712 H       415      M_A    0.0000
   4801 Si        110.2511   28.5304    1.5774 Si      416      M_A    0.0000
   4802 C         108.9071   27.6626    1.5360 C.3     416      M_A    0.0000
   4803 C         110.4535   29.0579    3.0748 C.3     416      M_A    0.0000
   4804 O         110.2161   29.5999    0.6428 O.2     416      M_A    0.0000
   4805 H         108.1777   28.1789    1.7808 H       416      M_A    0.0000
   4806 H         108.7584   27.3330    0.6829 H       416      M_A    0.0000
   4807 H         108.9632   26.9466    2.1216 H       416      M_A    0.0000
   4808 H         109.7384   29.5870    3.3337 H       416      M_A    0.0000
   4809 H         111.2284   29.5617    3.1406 H       416      M_A    0.0000
   4810 H         110.5148   28.3466    3.6655 H       416      M_A    0.0000
   4811 Si        112.1741    5.0112    0.5118 Si      417      M_A    0.0000
   4812 C         113.3256    5.9668   -0.3048 C.3     417      M_A    0.0000
   4813 C         110.6228    5.5620    0.0689 C.3     417      M_A    0.0000
   4814 O         112.3757    5.0494    2.0112 O.3     417      M_A    0.0000
   4815 H         113.2313    6.9161   -0.0523 H       417      M_A    0.0000
   4816 H         114.2411    5.6746   -0.0799 H       417      M_A    0.0000
   4817 H         113.2059    5.8954   -1.2820 H       417      M_A    0.0000
   4818 H         110.5037    6.5076    0.3249 H       417      M_A    0.0000
   4819 H         109.9241    5.0280    0.5170 H       417      M_A    0.0000
   4820 H         110.4940    5.4893   -0.9070 H       417      M_A    0.0000
   4821 Si        111.3380    4.9918    2.7467 Si      418      M_A    0.0000
   4822 C         110.3112    6.2699    2.2799 C.3     418      M_A    0.0000
   4823 C         110.5455    3.5239    2.3953 C.3     418      M_A    0.0000
   4824 O         111.7220    5.0859    4.2075 O.3     418      M_A    0.0000
   4825 H         109.4597    6.2309    2.7773 H       418      M_A    0.0000
   4826 H         110.7376    7.1414    2.4612 H       418      M_A    0.0000
   4827 H         110.1066    6.2166    1.3158 H       418      M_A    0.0000
   4828 H         109.6962    3.4597    2.8937 H       418      M_A    0.0000
   4829 H         111.1119    2.7554    2.6455 H       418      M_A    0.0000
   4830 H         110.3417    3.4614    1.4315 H       418      M_A    0.0000
   4831 Si        110.7954    4.9496    5.0700 Si      419      M_A    0.0000
   4832 C         109.3343    4.7353    4.2184 C.3     419      M_A    0.0000
   4833 C         111.1142    3.5177    5.9382 C.3     419      M_A    0.0000
   4834 O         110.7416    6.1572    5.9806 O.3     419      M_A    0.0000
   4835 H         108.5907    4.5592    4.8429 H       419      M_A    0.0000
   4836 H         109.1161    5.5431    3.6950 H       419      M_A    0.0000
   4837 H         109.4027    3.9702    3.5985 H       419      M_A    0.0000
   4838 H         110.3870    3.3304    6.5786 H       419      M_A    0.0000
   4839 H         111.9591    3.5983    6.4420 H       419      M_A    0.0000
   4840 H         111.1886    2.7485    5.3241 H       419      M_A    0.0000
   4841 Si        110.6700    7.3047    5.4336 Si      420      M_A    0.0000
   4842 C         110.7835    7.0736    3.7484 C.3     420      M_A    0.0000
   4843 C         109.1243    7.9367    5.7759 C.3     420      M_A    0.0000
   4844 O         111.7710    8.2047    5.9514 O.3     420      M_A    0.0000
   4845 H         110.6675    7.9299    3.2717 H       420      M_A    0.0000
   4846 H         111.6652    6.7008    3.5080 H       420      M_A    0.0000
   4847 H         110.0848    6.4506    3.4355 H       420      M_A    0.0000
   4848 H         108.9930    8.8009    5.3178 H       420      M_A    0.0000
   4849 H         109.0149    8.0793    6.7463 H       420      M_A    0.0000
   4850 H         108.4200    7.3165    5.4698 H       420      M_A    0.0000
   4851 Si        112.2059    9.1120    5.1713 Si      421      M_A    0.0000
   4852 C         113.8445    8.7668    4.8522 C.3     421      M_A    0.0000
   4853 C         111.3445    8.9800    3.7062 C.3     421      M_A    0.0000
   4854 O         112.0330   10.4766    5.8023 O.3     421      M_A    0.0000
   4855 H         114.2132    9.4065    4.1973 H       421      M_A    0.0000
   4856 H         114.3791    8.8261    5.6797 H       421      M_A    0.0000
   4857 H         113.9420    7.8572    4.4815 H       421      M_A    0.0000
   4858 H         111.6903    9.6216    3.0408 H       421      M_A    0.0000
   4859 H         110.3860    9.1665    3.8493 H       421      M_A    0.0000
   4860 H         111.4336    8.0710    3.3317 H       421      M_A    0.0000
   4861 Si        112.1090   11.4926    5.0387 Si      422      M_A    0.0000
   4862 C         113.2025   11.1094    3.7883 C.3     422      M_A    0.0000
   4863 C         110.5704   11.7218    4.3413 C.3     422      M_A    0.0000
   4864 O         112.5563   12.7078    5.8218 O.3     422      M_A    0.0000
   4865 H         113.2480   11.8429    3.1297 H       422      M_A    0.0000
   4866 H         114.1079   10.9617    4.1524 H       422      M_A    0.0000
   4867 H         112.9176   10.2903    3.3168 H       422      M_A    0.0000
   4868 H         110.5918   12.4609    3.6878 H       422      M_A    0.0000
   4869 H         109.9038   11.9399    5.0357 H       422      M_A    0.0000
   4870 H         110.2768   10.9048    3.8717 H       422      M_A    0.0000
   4871 Si        112.0082   13.8227    5.5430 Si      423      M_A    0.0000
   4872 C         112.5942   14.3113    4.0186 C.3     423      M_A    0.0000
   4873 C         110.3325   13.5447    5.3991 C.3     423      M_A    0.0000
   4874 O         112.3169   14.8443    6.6160 O.3     423      M_A    0.0000
   4875 H         112.1490   15.1417    3.7251 H       423      M_A    0.0000
   4876 H         113.5664   14.4767    4.0574 H       423      M_A    0.0000
   4877 H         112.4223   13.6145    3.3409 H       423      M_A    0.0000
   4878 H         109.8665   14.3680    5.1183 H       423      M_A    0.0000
   4879 H         109.9540   13.2521    6.2624 H       423      M_A    0.0000
   4880 H         110.1531   12.8453    4.7260 H       423      M_A    0.0000
   4881 Si        112.0330   16.0609    6.3702 Si      424      M_A    0.0000
   4882 C         113.3540   16.7319    5.5272 C.3     424      M_A    0.0000
   4883 C         110.6839   16.0685    5.3281 C.3     424      M_A    0.0000
   4884 O         111.7518   16.8065    7.6568 O.3     424      M_A    0.0000
   4885 H         113.1569   17.6596    5.2543 H       424      M_A    0.0000
   4886 H         114.1606   16.7397    6.0959 H       424      M_A    0.0000
   4887 H         113.5496   16.2074    4.7142 H       424      M_A    0.0000
   4888 H         110.4624   16.9901    5.0533 H       424      M_A    0.0000
   4889 H         109.8959   15.6801    5.7779 H       424      M_A    0.0000
   4890 H         110.8707   15.5418    4.5144 H       424      M_A    0.0000
   4891 Si        111.4214   18.0328    7.5668 Si      425      M_A    0.0000
   4892 C         111.9842   18.6028    6.0620 C.3     425      M_A    0.0000
   4893 C         109.7182   18.1017    7.5529 C.3     425      M_A    0.0000
   4894 O         112.0051   18.8215    8.7190 O.3     425      M_A    0.0000
   4895 H         111.6959   19.5349    5.9136 H       425      M_A    0.0000
   4896 H         112.9701   18.5727    6.0263 H       425      M_A    0.0000
   4897 H         111.6278   18.0501    5.3259 H       425      M_A    0.0000
   4898 H         109.4091   19.0292    7.4182 H       425      M_A    0.0000
   4899 H         109.3507   17.7724    8.4076 H       425      M_A    0.0000
   4900 H         109.3542   17.5473    6.8218 H       425      M_A    0.0000
   4901 Si        111.7241   20.0615    8.7861 Si      426      M_A    0.0000
   4902 C         110.5806   20.3915    7.5657 C.3     426      M_A    0.0000
   4903 C         110.9782   20.3337   10.2946 C.3     426      M_A    0.0000
   4904 O         112.9764   20.8950    8.6213 O.3     426      M_A    0.0000
   4905 H         110.2790   21.3298    7.6166 H       426      M_A    0.0000
   4906 H         110.9725   20.2389    6.6727 H       426      M_A    0.0000
   4907 H         109.7900   19.8088    7.6638 H       426      M_A    0.0000
   4908 H         110.6802   21.2715   10.3707 H       426      M_A    0.0000
   4909 H         111.6075   20.1466   11.0316 H       426      M_A    0.0000
   4910 H         110.1889   19.7508   10.4019 H       426      M_A    0.0000
   4911 Si        112.8399   22.0832    8.1848 Si      427      M_A    0.0000
   4912 C         114.4026   22.7256    7.9590 C.3     427      M_A    0.0000
   4913 C         112.0862   21.9819    6.6591 C.3     427      M_A    0.0000
   4914 O         112.0283   22.9116    9.1571 O.3     427      M_A    0.0000
   4915 H         114.3536   23.6261    7.5581 H       427      M_A    0.0000
   4916 H         114.8773   22.7947    8.8216 H       427      M_A    0.0000
   4917 H         114.9312   22.1495    7.3565 H       427      M_A    0.0000
   4918 H         112.0159   22.8755    6.2463 H       427      M_A    0.0000
   4919 H         111.1774   21.6068    6.7453 H       427      M_A    0.0000
   4920 H         112.6070   21.4033    6.0523 H       427      M_A    0.0000
   4921 Si        111.4446   23.9483    8.7035 Si      428      M_A    0.0000
   4922 C         111.8229   25.2430    9.7459 C.3     428      M_A    0.0000
   4923 C         112.1214   24.2865    7.1760 C.3     428      M_A    0.0000
   4924 O         109.9516   23.7165    8.6164 O.3     428      M_A    0.0000
   4925 H         111.4466   26.0878    9.4015 H       428      M_A    0.0000
   4926 H         111.4532   25.0824   10.6469 H       428      M_A    0.0000
   4927 H         112.8009   25.3515    9.8241 H       428      M_A    0.0000
   4928 H         111.7479   25.1225    6.8078 H       428      M_A    0.0000
   4929 H         111.9300   23.5547    6.5420 H       428      M_A    0.0000
   4930 H         113.1004   24.3919    7.2455 H       428      M_A    0.0000
   4931 Si        109.1950   24.4929    9.2840 Si      429      M_A    0.0000
   4932 C         109.9835   26.0002    9.3960 C.3     429      M_A    0.0000
   4933 C         107.7657   24.7117    8.3812 C.3     429      M_A    0.0000
   4934 O         108.9112   23.9059   10.6497 O.3     429      M_A    0.0000
   4935 H         109.4078   26.6606    9.8502 H       429      M_A    0.0000
   4936 H         110.8231   25.9153    9.9079 H       429      M_A    0.0000
   4937 H         110.1990   26.3469    8.4973 H       429      M_A    0.0000
   4938 H         107.1696   25.3603    8.8260 H       429      M_A    0.0000
   4939 H         107.2807   23.8573    8.2870 H       429      M_A    0.0000
   4940 H         107.9738   25.0541    7.4791 H       429      M_A    0.0000
   4941 Si        109.8103   24.0301   11.5427 Si      430      M_A    0.0000
   4942 C         110.2347   22.4622   12.0597 C.3     430      M_A    0.0000
   4943 C         111.1758   24.7269   10.7972 C.3     430      M_A    0.0000
   4944 O         109.3019   24.8795   12.6873 O.3     430      M_A    0.0000
   4945 H         110.9778   22.4994   12.7081 H       430      M_A    0.0000
   4946 H         109.4661   22.0197   12.4928 H       430      M_A    0.0000
   4947 H         110.5225   21.9100   11.2939 H       430      M_A    0.0000
   4948 H         111.9276   24.7849   11.4339 H       430      M_A    0.0000
   4949 H         110.9692   25.6370   10.4761 H       430      M_A    0.0000
   4950 H         111.4668   24.1823   10.0271 H       430      M_A    0.0000
   4951 Si        109.6193   26.1125   12.6921 Si      431      M_A    0.0000
   4952 C         110.1276   26.5137   11.1152 C.3     431      M_A    0.0000
   4953 C         108.2048   27.0013   13.0320 C.3     431      M_A    0.0000
   4954 O         110.7044   26.3732   13.7142 O.3     431      M_A    0.0000
   4955 H         110.3237   27.4786   11.0482 H       431      M_A    0.0000
   4956 H         110.9438   26.0131   10.8759 H       431      M_A    0.0000
   4957 H         109.4239   26.2969   10.4578 H       431      M_A    0.0000
   4958 H         108.3833   27.9706   12.9827 H       431      M_A    0.0000
   4959 H         107.8728   26.7919   13.9375 H       431      M_A    0.0000
   4960 H         107.4947   26.7861   12.3810 H       431      M_A    0.0000
   4961 Si        111.8018   25.7411   13.5825 Si      432      M_A    0.0000
   4962 C         112.2797   25.2214   15.1341 C.3     432      M_A    0.0000
   4963 C         111.4828   24.3580   12.6384 C.3     432      M_A    0.0000
   4964 O         112.8470   26.6284   12.9418 O.2     432      M_A    0.0000
   4965 H         113.0948   24.6678   15.0793 H       432      M_A    0.0000
   4966 H         112.4680   25.9956   15.7165 H       432      M_A    0.0000
   4967 H         111.5685   24.6804   15.5534 H       432      M_A    0.0000
   4968 H         112.2906   23.7965   12.5607 H       432      M_A    0.0000
   4969 H         111.1953   24.6166   11.7304 H       432      M_A    0.0000
   4970 H         110.7689   23.8141   13.0494 H       432      M_A    0.0000
   4971 Si        120.7549    4.1905   -2.1139 Si      433      M_A    0.0000
   4972 C         122.0945    4.8295   -2.9412 C.3     433      M_A    0.0000
   4973 C         119.3529    4.6233   -2.9709 C.3     433      M_A    0.0000
   4974 O         120.7037    4.6645   -0.6828 O.3     433      M_A    0.0000
   4975 H         122.0339    5.8100   -2.9932 H       433      M_A    0.0000
   4976 H         122.9305    4.5946   -2.4790 H       433      M_A    0.0000
   4977 H         122.1356    4.4761   -3.8585 H       433      M_A    0.0000
   4978 H         119.2672    5.6018   -3.0231 H       433      M_A    0.0000
   4979 H         118.5516    4.2652   -2.5264 H       433      M_A    0.0000
   4980 H         119.3849    4.2692   -3.8883 H       433      M_A    0.0000
   4981 Si        121.1732    5.8158   -0.4285 Si      434      M_A    0.0000
   4982 C         121.4471    5.8938    1.2467 C.3     434      M_A    0.0000
   4983 C         122.6759    5.9359   -1.2126 C.3     434      M_A    0.0000
   4984 O         120.2156    6.8866   -0.8886 O.3     434      M_A    0.0000
   4985 H         121.8736    6.7465    1.4885 H       434      M_A    0.0000
   4986 H         120.5988    5.8207    1.7395 H       434      M_A    0.0000
   4987 H         122.0389    5.1627    1.5350 H       434      M_A    0.0000
   4988 H         123.1137    6.7890   -0.9933 H       434      M_A    0.0000
   4989 H         122.5615    5.8880   -2.1885 H       434      M_A    0.0000
   4990 H         123.2718    5.2049   -0.9324 H       434      M_A    0.0000
   4991 Si        120.5505    8.0956   -0.6968 Si      435      M_A    0.0000
   4992 C         121.1752    8.2054    0.8796 C.3     435      M_A    0.0000
   4993 C         121.8053    8.4537   -1.7851 C.3     435      M_A    0.0000
   4994 O         119.3641    9.0064   -0.8924 O.3     435      M_A    0.0000
   4995 H         121.5110    9.1128    1.0566 H       435      M_A    0.0000
   4996 H         120.4788    7.9978    1.5427 H       435      M_A    0.0000
   4997 H         121.9198    7.5740    1.0016 H       435      M_A    0.0000
   4998 H         122.1469    9.3634   -1.6326 H       435      M_A    0.0000
   4999 H         121.4852    8.3944   -2.7135 H       435      M_A    0.0000
   5000 H         122.5520    7.8231   -1.6721 H       435      M_A    0.0000
   5001 Si        119.5906   10.1856   -1.3032 Si      436      M_A    0.0000
   5002 C         120.8224   10.0891   -2.4696 C.3     436      M_A    0.0000
   5003 C         118.1794   10.7347   -2.0739 C.3     436      M_A    0.0000
   5004 O         119.9810   11.0772   -0.1507 O.3     436      M_A    0.0000
   5005 H         120.9916   10.9721   -2.8687 H       436      M_A    0.0000
   5006 H         121.6587    9.7671   -2.0636 H       436      M_A    0.0000
   5007 H         120.5681    9.4705   -3.1912 H       436      M_A    0.0000
   5008 H         118.3242   11.6237   -2.4693 H       436      M_A    0.0000
   5009 H         117.4370   10.7984   -1.4315 H       436      M_A    0.0000
   5010 H         117.9162   10.1183   -2.7942 H       436      M_A    0.0000
   5011 Si        120.5346   12.1852   -0.4269 Si      437      M_A    0.0000
   5012 C         122.1904   12.0258   -0.0803 C.3     437      M_A    0.0000
   5013 C         120.3696   12.4321   -2.0999 C.3     437      M_A    0.0000
   5014 O         119.9022   13.3006    0.3677 O.3     437      M_A    0.0000
   5015 H         122.6784   12.8397   -0.3393 H       437      M_A    0.0000
   5016 H         122.3293   11.8740    0.8817 H       437      M_A    0.0000
   5017 H         122.5760   11.2673   -0.5743 H       437      M_A    0.0000
   5018 H         120.8409   13.2498   -2.3775 H       437      M_A    0.0000
   5019 H         119.4210   12.5231   -2.3441 H       437      M_A    0.0000
   5020 H         120.7491   11.6750   -2.6007 H       437      M_A    0.0000
   5021 Si        120.3426   14.4763    0.1823 Si      438      M_A    0.0000
   5022 C         121.5506   14.7550    1.3443 C.3     438      M_A    0.0000
   5023 C         121.0719   14.5093   -1.3520 C.3     438      M_A    0.0000
   5024 O         119.2215   15.4799    0.2899 O.3     438      M_A    0.0000
   5025 H         121.9717   15.6326    1.2024 H       438      M_A    0.0000
   5026 H         121.1691   14.7372    2.2509 H       438      M_A    0.0000
   5027 H         122.2511   14.0665    1.2873 H       438      M_A    0.0000
   5028 H         121.4886   15.3847   -1.5186 H       438      M_A    0.0000
   5029 H         120.4045   14.3447   -2.0557 H       438      M_A    0.0000
   5030 H         121.7708   13.8199   -1.4179 H       438      M_A    0.0000
   5031 Si        119.3729   16.5944   -0.2979 Si      439      M_A    0.0000
   5032 C         120.5196   16.3666   -1.5308 C.3     439      M_A    0.0000
   5033 C         117.8896   16.9896   -1.0266 C.3     439      M_A    0.0000
   5034 O         119.8116   17.6511    0.6851 O.3     439      M_A    0.0000
   5035 H         120.6258   17.1882   -2.0612 H       439      M_A    0.0000
   5036 H         121.3947   16.1286   -1.1495 H       439      M_A    0.0000
   5037 H         120.2373   15.6450   -2.1371 H       439      M_A    0.0000
   5038 H         117.9716   17.8169   -1.5523 H       439      M_A    0.0000
   5039 H         117.1939   17.1236   -0.3441 H       439      M_A    0.0000
   5040 H         117.5985   16.2701   -1.6312 H       439      M_A    0.0000
   5041 Si        119.7836   18.8598    0.2993 Si      440      M_A    0.0000
   5042 C         120.3119   18.8897   -1.3154 C.3     440      M_A    0.0000
   5043 C         118.1616   19.3653    0.3307 C.3     440      M_A    0.0000
   5044 O         120.6527   19.7148    1.1876 O.3     440      M_A    0.0000
   5045 H         120.2468   19.7993   -1.6843 H       440      M_A    0.0000
   5046 H         121.2487   18.5960   -1.3782 H       440      M_A    0.0000
   5047 H         119.7605   18.2937   -1.8710 H       440      M_A    0.0000
   5048 H         118.0768   20.2792   -0.0230 H       440      M_A    0.0000
   5049 H         117.8142   19.3556    1.2511 H       440      M_A    0.0000
   5050 H         117.6031   18.7708   -0.2194 H       440      M_A    0.0000
   5051 Si        121.0704   20.8163    0.7157 Si      441      M_A    0.0000
   5052 C         122.4851   21.2275    1.5623 C.3     441      M_A    0.0000
   5053 C         121.4900   20.5462   -0.9086 C.3     441      M_A    0.0000
   5054 O         120.0099   21.8806    0.8493 O.3     441      M_A    0.0000
   5055 H         122.8869   22.0443    1.1893 H       441      M_A    0.0000
   5056 H         122.2857   21.3861    2.5125 H       441      M_A    0.0000
   5057 H         123.1486   20.5037    1.4997 H       441      M_A    0.0000
   5058 H         121.8827   21.3568   -1.3042 H       441      M_A    0.0000
   5059 H         120.6963   20.2980   -1.4341 H       441      M_A    0.0000
   5060 H         122.1502   19.8202   -0.9794 H       441      M_A    0.0000
   5061 Si        120.1269   22.9197    0.1302 Si      442      M_A    0.0000
   5062 C         121.7273   23.4685    0.2876 C.3     442      M_A    0.0000
   5063 C         119.8897   22.4486   -1.4851 C.3     442      M_A    0.0000
   5064 O         119.1316   23.9693    0.5581 O.3     442      M_A    0.0000
   5065 H         121.8894   24.2379   -0.3034 H       442      M_A    0.0000
   5066 H         121.9083   23.7457    1.2140 H       442      M_A    0.0000
   5067 H         122.3625   22.7572    0.0455 H       442      M_A    0.0000
   5068 H         120.0348   23.2087   -2.0924 H       442      M_A    0.0000
   5069 H         118.9731   22.1167   -1.6174 H       442      M_A    0.0000
   5070 H         120.5187   21.7339   -1.7331 H       442      M_A    0.0000
   5071 Si        119.5595   25.1531    0.7195 Si      443      M_A    0.0000
   5072 C         120.8457   25.3806   -0.3673 C.3     443      M_A    0.0000
   5073 C         118.3053   26.2109    0.2779 C.3     443      M_A    0.0000
   5074 O         119.9918   25.3648    2.1491 O.3     443      M_A    0.0000
   5075 H         121.1724   26.3076   -0.3282 H       443      M_A    0.0000
   5076 H         121.5931   24.7791   -0.1494 H       443      M_A    0.0000
   5077 H         120.5563   25.1965   -1.2895 H       443      M_A    0.0000
   5078 H         118.6086   27.1456    0.3229 H       443      M_A    0.0000
   5079 H         117.5355   26.1054    0.8812 H       443      M_A    0.0000
   5080 H         118.0074   26.0296   -0.6421 H       443      M_A    0.0000
   5081 Si        120.5046   26.4867    2.4474 Si      444      M_A    0.0000
   5082 C         119.9671   27.6132    1.2945 C.3     444      M_A    0.0000
   5083 C         119.8801   26.9443    3.9599 C.3     444      M_A    0.0000
   5084 O         122.0095   26.3864    2.4713 O.3     444      M_A    0.0000
   5085 H         120.2852   28.5167    1.5186 H       444      M_A    0.0000
   5086 H         120.3029   27.3794    0.3998 H       444      M_A    0.0000
   5087 H         118.9840   27.6338    1.2628 H       444      M_A    0.0000
   5088 H         120.1973   27.8416    4.2085 H       444      M_A    0.0000
   5089 H         120.1639   26.3110    4.6571 H       444      M_A    0.0000
   5090 H         118.8966   26.9626    3.9371 H       444      M_A    0.0000
   5091 Si        122.6061   26.2416    1.3606 Si      445      M_A    0.0000
   5092 C         123.8760   25.1397    1.6061 C.3     445      M_A    0.0000
   5093 C         121.5011   25.5372    0.2789 C.3     445      M_A    0.0000
   5094 O         123.1097   27.5716    0.8578 O.3     445      M_A    0.0000
   5095 H         124.3319   24.9419    0.7572 H       445      M_A    0.0000
   5096 H         124.5370   25.5083    2.2345 H       445      M_A    0.0000
   5097 H         123.5339   24.2938    1.9743 H       445      M_A    0.0000
   5098 H         121.9352   25.3431   -0.5822 H       445      M_A    0.0000
   5099 H         120.7438   26.1433    0.1146 H       445      M_A    0.0000
   5100 H         121.1511   24.6927    0.6427 H       445      M_A    0.0000
   5101 Si        123.2637   27.7057   -0.3947 Si      446      M_A    0.0000
   5102 C         124.9343   27.7837   -0.6953 C.3     446      M_A    0.0000
   5103 C         122.6622   26.2989   -1.1337 C.3     446      M_A    0.0000
   5104 O         122.5499   28.9419   -0.8822 O.3     446      M_A    0.0000
   5105 H         125.1107   27.8226   -1.6623 H       446      M_A    0.0000
   5106 H         125.3240   28.5842   -0.2767 H       446      M_A    0.0000
   5107 H         125.3886   26.9899   -0.3328 H       446      M_A    0.0000
   5108 H         122.8178   26.3241   -2.1047 H       446      M_A    0.0000
   5109 H         121.6948   26.2125   -0.9769 H       446      M_A    0.0000
   5110 H         123.1089   25.5001   -0.7726 H       446      M_A    0.0000
   5111 Si        121.4299   28.7846   -1.4579 Si      447      M_A    0.0000
   5112 C         121.1672   27.1127   -1.6091 C.3     447      M_A    0.0000
   5113 C         120.2356   29.4128   -0.4254 C.3     447      M_A    0.0000
   5114 O         121.4278   29.4742   -2.7995 O.2     447      M_A    0.0000
   5115 H         120.2788   26.9350   -1.9922 H       447      M_A    0.0000
   5116 H         121.8447   26.7079   -2.1963 H       447      M_A    0.0000
   5117 H         121.2148   26.6740   -0.7297 H       447      M_A    0.0000
   5118 H         119.3386   29.2562   -0.7977 H       447      M_A    0.0000
   5119 H         120.3567   30.3817   -0.3057 H       447      M_A    0.0000
   5120 H         120.2801   28.9817    0.4579 H       447      M_A    0.0000
   5121 Si        125.8023    4.9643   -0.1472 Si      448      M_A    0.0000
   5122 C         127.0823    6.0292   -0.8354 C.3     448      M_A    0.0000
   5123 C         124.2008    5.6613   -0.5892 C.3     448      M_A    0.0000
   5124 O         125.9590    4.7963    1.4356 O.3     448      M_A    0.0000
   5125 H         127.0059    6.9938   -0.4461 H       448      M_A    0.0000
   5126 H         128.0300    5.6572   -0.6083 H       448      M_A    0.0000
   5127 H         126.9908    6.0896   -1.8728 H       448      M_A    0.0000
   5128 H         124.0980    6.6225   -0.1976 H       448      M_A    0.0000
   5129 H         123.4275    5.0695   -0.2151 H       448      M_A    0.0000
   5130 H         124.0997    5.7204   -1.6258 H       448      M_A    0.0000
   5131 Si        125.6762    5.8629    2.2059 Si      449      M_A    0.0000
   5132 C         124.0153    6.4126    1.7755 C.3     449      M_A    0.0000
   5133 C         125.6506    5.2997    3.9170 C.3     449      M_A    0.0000
   5134 O         126.7599    7.0170    1.9781 O.3     449      M_A    0.0000
   5135 H         123.7168    7.1980    2.3934 H       449      M_A    0.0000
   5136 H         123.9829    6.7420    0.7863 H       449      M_A    0.0000
   5137 H         123.3305    5.6335    1.8869 H       449      M_A    0.0000
   5138 H         125.3671    6.0749    4.5546 H       449      M_A    0.0000
   5139 H         126.5949    4.9644    4.2068 H       449      M_A    0.0000
   5140 H         124.9713    4.5168    4.0356 H       449      M_A    0.0000
   5141 Si        126.6978    8.0963    2.7794 Si      450      M_A    0.0000
   5142 C         125.4287    7.7753    4.0173 C.3     450      M_A    0.0000
   5143 C         128.2819    8.2292    3.6273 C.3     450      M_A    0.0000
   5144 O         126.3721    9.4074    1.9232 O.3     450      M_A    0.0000
   5145 H         125.3857    8.5542    4.7097 H       450      M_A    0.0000
   5146 H         124.4922    7.6837    3.5671 H       450      M_A    0.0000
   5147 H         125.6347    6.8926    4.5338 H       450      M_A    0.0000
   5148 H         128.2652    9.0122    4.3161 H       450      M_A    0.0000
   5149 H         129.0495    8.4087    2.9442 H       450      M_A    0.0000
   5150 H         128.4975    7.3481    4.1425 H       450      M_A    0.0000
   5151 Si        125.5433   10.3168    2.4680 Si      451      M_A    0.0000
   5152 C         124.9809   11.3964    1.1398 C.3     451      M_A    0.0000
   5153 C         124.1125    9.4270    3.1061 C.3     451      M_A    0.0000
   5154 O         126.2940   11.1351    3.6190 O.3     451      M_A    0.0000
   5155 H         124.2787   12.0809    1.4953 H       451      M_A    0.0000
   5156 H         125.7821   11.9278    0.7350 H       451      M_A    0.0000
   5157 H         124.5351   10.8399    0.3783 H       451      M_A    0.0000
   5158 H         123.4024   10.0934    3.4797 H       451      M_A    0.0000
   5159 H         124.3952    8.7822    3.8758 H       451      M_A    0.0000
   5160 H         123.6639    8.8639    2.3512 H       451      M_A    0.0000
   5161 Si        125.6509   12.1891    4.1541 Si      452      M_A    0.0000
   5162 C         125.8301   13.5676    3.0079 C.3     452      M_A    0.0000
   5163 C         123.9025   11.7637    4.2446 C.3     452      M_A    0.0000
   5164 O         126.2520   12.5350    5.5954 O.3     452      M_A    0.0000
   5165 H         125.2899   14.3952    3.3415 H       452      M_A    0.0000
   5166 H         126.8323   13.8431    2.9196 H       452      M_A    0.0000
   5167 H         125.4744   13.3073    2.0624 H       452      M_A    0.0000
   5168 H         123.3446   12.5747    4.5896 H       452      M_A    0.0000
   5169 H         123.7535   10.9618    4.8949 H       452      M_A    0.0000
   5170 H         123.5404   11.4974    3.3032 H       452      M_A    0.0000
   5171 Si        125.5574   13.3871    6.3714 Si      453      M_A    0.0000
   5172 C         123.9683   13.6706    5.5714 C.3     453      M_A    0.0000
   5173 C         125.2507   12.5576    7.9411 C.3     453      M_A    0.0000
   5174 O         126.3721   14.7491    6.5703 O.3     453      M_A    0.0000
   5175 H         123.3594   14.2725    6.1671 H       453      M_A    0.0000
   5176 H         124.1002   14.1447    4.6516 H       453      M_A    0.0000
   5177 H         123.4726   12.7670    5.4092 H       453      M_A    0.0000
   5178 H         124.6536   13.1493    8.5586 H       453      M_A    0.0000
   5179 H         126.1485   12.3670    8.4367 H       453      M_A    0.0000
   5180 H         124.7593   11.6504    7.7869 H       453      M_A    0.0000
   5181 Si        125.6688   15.8959    6.6039 Si      454      M_A    0.0000
   5182 C         126.1715   16.8776    5.1793 C.3     454      M_A    0.0000
   5183 C         123.9307   15.4677    6.3999 C.3     454      M_A    0.0000
   5184 O         125.9311   16.6696    7.9790 O.3     454      M_A    0.0000
   5185 H         125.6053   17.7514    5.1173 H       454      M_A    0.0000
   5186 H         127.1777   17.1425    5.2532 H       454      M_A    0.0000
   5187 H         126.0356   16.3392    4.2962 H       454      M_A    0.0000
   5188 H         123.3440   16.3285    6.3491 H       454      M_A    0.0000
   5189 H         123.5986   14.8905    7.2028 H       454      M_A    0.0000
   5190 H         123.7873   14.9245    5.5208 H       454      M_A    0.0000
   5191 Si        125.6511   17.9852    8.0162 Si      455      M_A    0.0000
   5192 C         127.0258   18.8504    7.2366 C.3     455      M_A    0.0000
   5193 C         124.1818   18.2517    7.0082 C.3     455      M_A    0.0000
   5194 O         125.4289   18.4646    9.5259 O.3     455      M_A    0.0000
   5195 H         126.8292   19.8729    7.1760 H       455      M_A    0.0000
   5196 H         127.9023   18.7162    7.7860 H       455      M_A    0.0000
   5197 H         127.1839   18.4922    6.2697 H       455      M_A    0.0000
   5198 H         123.9590   19.2688    6.9454 H       455      M_A    0.0000
   5199 H         123.3597   17.7601    7.4211 H       455      M_A    0.0000
   5200 H         124.3304   17.8915    6.0405 H       455      M_A    0.0000
   5201 Si        125.0102   19.7283    9.7225 Si      456      M_A    0.0000
   5202 C         125.1357   20.5887    8.1446 C.3     456      M_A    0.0000
   5203 C         123.2690   19.6534   10.1792 C.3     456      M_A    0.0000
   5204 O         125.8899   20.4363   10.8552 O.3     456      M_A    0.0000
   5205 H         124.7572   21.5574    8.2234 H       456      M_A    0.0000
   5206 H         126.1308   20.6486    7.8378 H       456      M_A    0.0000
   5207 H         124.5927   20.0868    7.4087 H       456      M_A    0.0000
   5208 H         122.8733   20.6136   10.2767 H       456      M_A    0.0000
   5209 H         123.1493   19.1548   11.0875 H       456      M_A    0.0000
   5210 H         122.7197   19.1484    9.4501 H       456      M_A    0.0000
   5211 Si        125.6891   21.7496   11.0693 Si      457      M_A    0.0000
   5212 C         127.2926   22.4877   11.4297 C.3     457      M_A    0.0000
   5213 C         125.0828   22.4597    9.5285 C.3     457      M_A    0.0000
   5214 O         124.6540   21.9661   12.2692 O.3     457      M_A    0.0000
   5215 H         127.2053   23.5216   11.5365 H       457      M_A    0.0000
   5216 H         127.6852   22.0979   12.3140 H       457      M_A    0.0000
   5217 H         127.9666   22.2968   10.6566 H       457      M_A    0.0000
   5218 H         124.9752   23.4933    9.6178 H       457      M_A    0.0000
   5219 H         124.1555   22.0532    9.2773 H       457      M_A    0.0000
   5220 H         125.7493   22.2687    8.7490 H       457      M_A    0.0000
   5221 Si        124.4325   23.2281   12.6803 Si      458      M_A    0.0000
   5222 C         125.4205   23.4925   14.1634 C.3     458      M_A    0.0000
   5223 C         125.0511   24.3292   11.3953 C.3     458      M_A    0.0000
   5224 O         122.8741   23.4578   12.9577 O.3     458      M_A    0.0000
   5225 H         125.3400   24.4808   14.4870 H       458      M_A    0.0000
   5226 H         125.0996   22.8671   14.9341 H       458      M_A    0.0000
   5227 H         126.4270   23.2938   13.9742 H       458      M_A    0.0000
   5228 H         124.9671   25.3251   11.6935 H       458      M_A    0.0000
   5229 H         124.5094   24.2035   10.5128 H       458      M_A    0.0000
   5230 H         126.0563   24.1332   11.1968 H       458      M_A    0.0000
   5231 Si        122.0758   23.6619   11.8938 Si      459      M_A    0.0000
   5232 C         122.7675   22.7306   10.5153 C.3     459      M_A    0.0000
   5233 C         120.4641   22.9595   12.2875 C.3     459      M_A    0.0000
   5234 O         121.9769   25.2237   11.5635 O.3     459      M_A    0.0000
   5235 H         122.1478   22.7976    9.6791 H       459      M_A    0.0000
   5236 H         123.7081   23.1009   10.2579 H       459      M_A    0.0000
   5237 H         122.8665   21.7228   10.7661 H       459      M_A    0.0000
   5238 H         119.8232   23.0287   11.4676 H       459      M_A    0.0000
   5239 H         120.0290   23.4666   13.0885 H       459      M_A    0.0000
   5240 H         120.5554   21.9525   12.5443 H       459      M_A    0.0000
   5241 Si        122.1452   25.6010   10.2828 Si      460      M_A    0.0000
   5242 C         123.7329   24.9500    9.7340 C.3     460      M_A    0.0000
   5243 C         120.8518   24.8058    9.3129 C.3     460      M_A    0.0000
   5244 O         122.0835   27.1945   10.1593 O.3     460      M_A    0.0000
   5245 H         123.8840   25.1550    8.7225 H       460      M_A    0.0000
   5246 H         124.5130   25.3802   10.2766 H       460      M_A    0.0000
   5247 H         123.7705   23.9157    9.8648 H       460      M_A    0.0000
   5248 H         120.9764   25.0094    8.2976 H       460      M_A    0.0000
   5249 H         119.9111   25.1499    9.6041 H       460      M_A    0.0000
   5250 H         120.8797   23.7710    9.4424 H       460      M_A    0.0000
   5251 Si        123.1121   27.8985   10.6663 Si      461      M_A    0.0000
   5252 C         122.4170   29.3044   11.5531 C.3     461      M_A    0.0000
   5253 C         123.9486   26.8433   11.8633 C.3     461      M_A    0.0000
   5254 O         124.0980   28.3646    9.4963 O.3     461      M_A    0.0000
   5255 H         123.1702   29.8487   12.0267 H       461      M_A    0.0000
   5256 H         121.9151   29.9405   10.8961 H       461      M_A    0.0000
   5257 H         121.7425   28.9822   12.2809 H       461      M_A    0.0000
   5258 H         124.7159   27.3650   12.3397 H       461      M_A    0.0000
   5259 H         124.3615   26.0096   11.3916 H       461      M_A    0.0000
   5260 H         123.2793   26.5129   12.5921 H       461      M_A    0.0000
   5261 Si        125.0670   27.5096    9.1212 Si      462      M_A    0.0000
   5262 C         124.5891   25.8695    9.6936 C.3     462      M_A    0.0000
   5263 C         125.0952   27.4845    7.3199 C.3     462      M_A    0.0000
   5264 O         126.4752   27.9625    9.7296 O.2     462      M_A    0.0000
   5265 H         125.2739   25.1531    9.3687 H       462      M_A    0.0000
   5266 H         124.5530   25.8410   10.7358 H       462      M_A    0.0000
   5267 H         123.6486   25.6112    9.3233 H       462      M_A    0.0000
   5268 H         125.7847   26.7830    6.9732 H       462      M_A    0.0000
   5269 H         125.3615   28.4205    6.9443 H       462      M_A    0.0000
   5270 H         124.1564   27.2316    6.9417 H       462      M_A    0.0000
   5271 Si        138.9700    0.2520   -1.9966 Si      463      M_A    0.0000
   5272 C         140.6916   -0.2490   -2.2363 C.3     463      M_A    0.0000
   5273 C         137.9818   -1.2429   -1.7491 C.3     463      M_A    0.0000
   5274 O         138.4277    1.1263   -3.2297 O.3     463      M_A    0.0000
   5275 H         140.7820   -0.8677   -3.0764 H       463      M_A    0.0000
   5276 H         141.3029    0.5897   -2.3768 H       463      M_A    0.0000
   5277 H         141.0408   -0.7782   -1.4025 H       463      M_A    0.0000
   5278 H         138.0473   -1.8707   -2.5847 H       463      M_A    0.0000
   5279 H         136.9747   -0.9977   -1.5987 H       463      M_A    0.0000
   5280 H         138.3220   -1.7754   -0.9137 H       463      M_A    0.0000
   5281 Si        138.3678    0.5297   -4.4404 Si      464      M_A    0.0000
   5282 C         136.6230    0.4281   -4.9072 C.3     464      M_A    0.0000
   5283 C         139.2001    1.6184   -5.6213 C.3     464      M_A    0.0000
   5284 O         139.0537   -0.9212   -4.3832 O.3     464      M_A    0.0000
   5285 H         136.5219    0.0349   -5.8726 H       464      M_A    0.0000
   5286 H         136.0995   -0.1895   -4.2428 H       464      M_A    0.0000
   5287 H         136.1822    1.3782   -4.8944 H       464      M_A    0.0000
   5288 H         139.1227    1.2361   -6.5932 H       464      M_A    0.0000
   5289 H         140.2158    1.7117   -5.3833 H       464      M_A    0.0000
   5290 H         138.7679    2.5725   -5.6108 H       464      M_A    0.0000
   5291 Si        139.1124   -1.6307   -5.5315 Si      465      M_A    0.0000
   5292 C         137.4180   -1.8229   -6.1352 C.3     465      M_A    0.0000
   5293 C         140.0255   -0.6360   -6.7354 C.3     465      M_A    0.0000
   5294 O         139.8176   -3.0507   -5.2759 O.3     465      M_A    0.0000
   5295 H         137.4100   -2.3079   -7.0633 H       465      M_A    0.0000
   5296 H         136.8493   -2.3890   -5.4621 H       465      M_A    0.0000
   5297 H         136.9601   -0.8881   -6.2520 H       465      M_A    0.0000
   5298 H         140.0415   -1.1101   -7.6690 H       465      M_A    0.0000
   5299 H         141.0142   -0.4933   -6.4207 H       465      M_A    0.0000
   5300 H         139.5764    0.3028   -6.8541 H       465      M_A    0.0000
   5301 Si        139.9168   -3.8970   -6.3244 Si      466      M_A    0.0000
   5302 C         139.0419   -5.4160   -5.8776 C.3     466      M_A    0.0000
   5303 C         139.0450   -3.1382   -7.7160 C.3     466      M_A    0.0000
   5304 O         141.4593   -4.1789   -6.6710 O.3     466      M_A    0.0000
   5305 H         139.0277   -6.0841   -6.6839 H       466      M_A    0.0000
   5306 H         139.5108   -5.8862   -5.0676 H       466      M_A    0.0000
   5307 H         138.0511   -5.2056   -5.6109 H       466      M_A    0.0000
   5308 H         139.0308   -3.7854   -8.5392 H       466      M_A    0.0000
   5309 H         139.5158   -2.2481   -8.0040 H       466      M_A    0.0000
   5310 H         138.0542   -2.9203   -7.4554 H       466      M_A    0.0000
   5311 Si        141.7340   -4.8020   -7.8380 Si      467      M_A    0.0000
   5312 C         141.7925   -3.5341   -9.1269 C.3     467      M_A    0.0000
   5313 C         143.3855   -5.5249   -7.6892 C.3     467      M_A    0.0000
   5314 O         140.6222   -5.9177   -8.1510 O.3     467      M_A    0.0000
   5315 H         142.0714   -3.9541  -10.0449 H       467      M_A    0.0000
   5316 H         140.8546   -3.0826   -9.2420 H       467      M_A    0.0000
   5317 H         142.4902   -2.7921   -8.8825 H       467      M_A    0.0000
   5318 H         143.6791   -5.9632   -8.5938 H       467      M_A    0.0000
   5319 H         143.3990   -6.2623   -6.9455 H       467      M_A    0.0000
   5320 H         144.0885   -4.7895   -7.4399 H       467      M_A    0.0000
   5321 Si        139.9473   -5.8177   -9.3172 Si      468      M_A    0.0000
   5322 C         138.1830   -5.9231   -8.9315 C.3     468      M_A    0.0000
   5323 C         140.2748   -4.1715   -9.9918 C.3     468      M_A    0.0000
   5324 O         140.4053   -6.9774  -10.3293 O.3     468      M_A    0.0000
   5325 H         137.6077   -5.7812   -9.7950 H       468      M_A    0.0000
   5326 H         137.9495   -6.8618   -8.5298 H       468      M_A    0.0000
   5327 H         137.9135   -5.1881   -8.2356 H       468      M_A    0.0000
   5328 H         139.7187   -4.0135  -10.8650 H       468      M_A    0.0000
   5329 H         141.2906   -4.0640  -10.2234 H       468      M_A    0.0000
   5330 H         140.0122   -3.4306   -9.2995 H       468      M_A    0.0000
   5331 Si        139.6946   -7.1296  -11.4683 Si      469      M_A    0.0000
   5332 C         138.1647   -7.9943  -11.0393 C.3     469      M_A    0.0000
   5333 C         139.2563   -5.4762  -12.0569 C.3     469      M_A    0.0000
   5334 O         140.5513   -7.9411  -12.5575 O.3     469      M_A    0.0000
   5335 H         137.5413   -8.0781  -11.8766 H       469      M_A    0.0000
   5336 H         138.3732   -8.9577  -10.6854 H       469      M_A    0.0000
   5337 H         137.6431   -7.4732  -10.2953 H       469      M_A    0.0000
   5338 H         138.6429   -5.5368  -12.9036 H       469      M_A    0.0000
   5339 H         140.1167   -4.9357  -12.3108 H       469      M_A    0.0000
   5340 H         138.7383   -4.9467  -11.3163 H       469      M_A    0.0000
   5341 Si        139.8965   -8.4183  -13.6387 Si      470      M_A    0.0000
   5342 C         138.6889   -9.6290  -13.0485 C.3     470      M_A    0.0000
   5343 C         138.9895   -7.0368  -14.3745 C.3     470      M_A    0.0000
   5344 O         140.9333   -9.0699  -14.6776 O.3     470      M_A    0.0000
   5345 H         138.1028   -9.9818  -13.8414 H       470      M_A    0.0000
   5346 H         139.1727  -10.4461  -12.6066 H       470      M_A    0.0000
   5347 H         138.0512   -9.1973  -12.3384 H       470      M_A    0.0000
   5348 H         138.4061   -7.3658  -15.1795 H       470      M_A    0.0000
   5349 H         139.6528   -6.3057  -14.7245 H       470      M_A    0.0000
   5350 H         138.3528   -6.5965  -13.6688 H       470      M_A    0.0000
   5351 Si        140.4439   -9.9444  -15.5838 Si      471      M_A    0.0000
   5352 C         140.6407  -11.6049  -14.8936 C.3     471      M_A    0.0000
   5353 C         138.6731   -9.6148  -15.7513 C.3     471      M_A    0.0000
   5354 O         141.2135   -9.7872  -16.9845 O.3     471      M_A    0.0000
   5355 H         140.2130  -12.3207  -15.5273 H       471      M_A    0.0000
   5356 H         141.6552  -11.8354  -14.7726 H       471      M_A    0.0000
   5357 H         140.1712  -11.6739  -13.9599 H       471      M_A    0.0000
   5358 H         138.2273  -10.3122  -16.3929 H       471      M_A    0.0000
   5359 H         138.5124   -8.6566  -16.1426 H       471      M_A    0.0000
   5360 H         138.1970   -9.6771  -14.8204 H       471      M_A    0.0000
   5361 Si        140.8534  -10.6128  -17.9916 Si      472      M_A    0.0000
   5362 C         140.3949  -12.1990  -17.2525 C.3     472      M_A    0.0000
   5363 C         139.3777   -9.9093  -18.7660 C.3     472      M_A    0.0000
   5364 O         142.0580  -10.7719  -19.0417 O.3     472      M_A    0.0000
   5365 H         140.0396  -12.8580  -17.9848 H       472      M_A    0.0000
   5366 H         141.2217  -12.6400  -16.7848 H       472      M_A    0.0000
   5367 H         139.6403  -12.0681  -16.5379 H       472      M_A    0.0000
   5368 H         139.0131  -10.5472  -19.5122 H       472      M_A    0.0000
   5369 H         139.5971   -8.9827  -19.2022 H       472      M_A    0.0000
   5370 H         138.6197   -9.7707  -18.0565 H       472      M_A    0.0000
   5371 Si        142.1776  -11.9561  -19.6810 Si      473      M_A    0.0000
   5372 C         143.8945  -12.1021  -20.2316 C.3     473      M_A    0.0000
   5373 C         141.8671  -13.2600  -18.4662 C.3     473      M_A    0.0000
   5374 O         141.1494  -12.0331  -20.9123 O.3     473      M_A    0.0000
   5375 H         144.0615  -13.0362  -20.6748 H       473      M_A    0.0000
   5376 H         144.1205  -11.3586  -20.9338 H       473      M_A    0.0000
   5377 H         144.5510  -12.0037  -19.4213 H       473      M_A    0.0000
   5378 H         142.0154  -14.2047  -18.8931 H       473      M_A    0.0000
   5379 H         140.8822  -13.2080  -18.1139 H       473      M_A    0.0000
   5380 H         142.5168  -13.1655  -17.6500 H       473      M_A    0.0000
   5381 Si        141.0977  -13.1876  -21.6122 Si      474      M_A    0.0000
   5382 C         141.7184  -12.8396  -23.2754 C.3     474      M_A    0.0000
   5383 C         142.2364  -14.3501  -20.8222 C.3     474      M_A    0.0000
   5384 O         139.5956  -13.7549  -21.6444 O.3     474      M_A    0.0000
   5385 H         141.7657  -13.7186  -23.8427 H       474      M_A    0.0000
   5386 H         141.0901  -12.1620  -23.7685 H       474      M_A    0.0000
   5387 H         142.6805  -12.4281  -23.2310 H       474      M_A    0.0000
   5388 H         142.2885  -15.2430  -21.3670 H       474      M_A    0.0000
   5389 H         141.9176  -14.5747  -19.8502 H       474      M_A    0.0000
   5390 H         143.2003  -13.9436  -20.7696 H       474      M_A    0.0000
   5391 Si        139.3022  -14.6951  -22.5692 Si      475      M_A    0.0000
   5392 C         140.6063  -14.6464  -23.8220 C.3     475      M_A    0.0000
   5393 C         139.3770  -16.3044  -21.7465 C.3     475      M_A    0.0000
   5394 O         137.8543  -14.4195  -23.2067 O.3     475      M_A    0.0000
   5395 H         140.4657  -15.4049  -24.5302 H       475      M_A    0.0000
   5396 H         140.6039  -13.7251  -24.3203 H       475      M_A    0.0000
   5397 H         141.5465  -14.7825  -23.3807 H       475      M_A    0.0000
   5398 H         139.2251  -17.0782  -22.4357 H       475      M_A    0.0000
   5399 H         138.6404  -16.3735  -21.0052 H       475      M_A    0.0000
   5400 H         140.3130  -16.4460  -21.2983 H       475      M_A    0.0000
   5401 Si        137.7749  -14.3017  -24.5503 Si      476      M_A    0.0000
   5402 C         138.9032  -15.5205  -25.2672 C.3     476      M_A    0.0000
   5403 C         136.0897  -14.7476  -25.0335 C.3     476      M_A    0.0000
   5404 O         138.1480  -12.8069  -25.0034 O.3     476      M_A    0.0000
   5405 H         138.8304  -15.5207  -26.3119 H       476      M_A    0.0000
   5406 H         139.8939  -15.3037  -25.0055 H       476      M_A    0.0000
   5407 H         138.6725  -16.4829  -24.9241 H       476      M_A    0.0000
   5408 H         135.9910  -14.7407  -26.0760 H       476      M_A    0.0000
   5409 H         135.4000  -14.0692  -24.6321 H       476      M_A    0.0000
   5410 H         135.8495  -15.7074  -24.6896 H       476      M_A    0.0000
   5411 Si        139.4417  -12.5459  -25.2928 Si      477      M_A    0.0000
   5412 C         139.8924  -11.0225  -24.4276 C.3     477      M_A    0.0000
   5413 C         140.4321  -13.8940  -24.6045 C.3     477      M_A    0.0000
   5414 O         139.6429  -12.4103  -26.8803 O.2     477      M_A    0.0000
   5415 H         140.9090  -10.8095  -24.5614 H       477      M_A    0.0000
   5416 H         139.3351  -10.2138  -24.7914 H       477      M_A    0.0000
   5417 H         139.7112  -11.1149  -23.4001 H       477      M_A    0.0000
   5418 H         141.4537  -13.7074  -24.7399 H       477      M_A    0.0000
   5419 H         140.1972  -14.8003  -25.0739 H       477      M_A    0.0000
   5420 H         140.2527  -13.9960  -23.5776 H       477      M_A    0.0000
   5421 Si        143.3595    1.6806    2.5369 Si      478      M_A    0.0000
   5422 C         143.5067    3.5863    2.7360 C.3     478      M_A    0.0000
   5423 C         141.7301    1.1185    3.3868 C.3     478      M_A    0.0000
   5424 O         144.7181    0.8714    3.1772 O.3     478      M_A    0.0000
   5425 H         143.5367    3.8665    3.8123 H       478      M_A    0.0000
   5426 H         144.4355    3.9597    2.2505 H       478      M_A    0.0000
   5427 H         142.6352    4.0971    2.2693 H       478      M_A    0.0000
   5428 H         141.7439    1.3760    4.4690 H       478      M_A    0.0000
   5429 H         141.5980    0.0180    3.2899 H       478      M_A    0.0000
   5430 H         140.8527    1.6211    2.9222 H       478      M_A    0.0000
   5431 Si        144.7988   -0.5482    2.9813 Si      479      M_A    0.0000
   5432 C         144.8998   -0.8618    1.0880 C.3     479      M_A    0.0000
   5433 C         146.4463   -1.1441    3.7709 C.3     479      M_A    0.0000
   5434 O         143.4475   -1.3216    3.6788 O.3     479      M_A    0.0000
   5435 H         145.0388   -1.9453    0.8773 H       479      M_A    0.0000
   5436 H         143.9666   -0.5237    0.5852 H       479      M_A    0.0000
   5437 H         145.7585   -0.3098    0.6451 H       479      M_A    0.0000
   5438 H         146.5995   -2.2302    3.5849 H       479      M_A    0.0000
   5439 H         146.4367   -0.9747    4.8706 H       479      M_A    0.0000
   5440 H         147.3102   -0.5931    3.3370 H       479      M_A    0.0000
   5441 Si        143.5905   -1.8341    5.0119 Si      480      M_A    0.0000
   5442 C         142.2729   -3.2141    5.2410 C.3     480      M_A    0.0000
   5443 C         145.3282   -2.6460    5.1315 C.3     480      M_A    0.0000
   5444 O         143.3984   -0.5810    6.1536 O.3     480      M_A    0.0000
   5445 H         142.3845   -3.7011    6.2350 H       480      M_A    0.0000
   5446 H         141.2465   -2.7902    5.1715 H       480      M_A    0.0000
   5447 H         142.3850   -3.9963    4.4575 H       480      M_A    0.0000
   5448 H         145.4679   -3.1278    6.1246 H       480      M_A    0.0000
   5449 H         146.1266   -1.8829    4.9967 H       480      M_A    0.0000
   5450 H         145.4505   -3.4263    4.3477 H       480      M_A    0.0000
   5451 Si        144.4226    0.4226    6.2166 Si      481      M_A    0.0000
   5452 C         145.8405   -0.1293    5.0426 C.3     481      M_A    0.0000
   5453 C         143.6750    2.0505    5.5209 C.3     481      M_A    0.0000
   5454 O         144.9691    0.6134    7.8215 O.3     481      M_A    0.0000
   5455 H         146.6338    0.6491    4.9935 H       481      M_A    0.0000
   5456 H         146.3003   -1.0763    5.4030 H       481      M_A    0.0000
   5457 H         145.4536   -0.2950    4.0126 H       481      M_A    0.0000
   5458 H         144.4484    2.8490    5.4762 H       481      M_A    0.0000
   5459 H         142.8415    2.4055    6.1668 H       481      M_A    0.0000
   5460 H         143.2809    1.8921    4.4924 H       481      M_A    0.0000
   5461 Si        144.3580    1.6430    8.6131 Si      482      M_A    0.0000
   5462 C         144.5268    3.2916    7.6401 C.3     482      M_A    0.0000
   5463 C         142.4876    1.2251    8.7540 C.3     482      M_A    0.0000
   5464 O         145.1024    1.7345   10.1454 O.3     482      M_A    0.0000
   5465 H         144.0040    4.1164    8.1732 H       482      M_A    0.0000
   5466 H         145.5978    3.5709    7.5266 H       482      M_A    0.0000
   5467 H         144.0783    3.1955    6.6262 H       482      M_A    0.0000
   5468 H         141.9461    2.0309    9.2973 H       482      M_A    0.0000
   5469 H         142.3407    0.2702    9.3058 H       482      M_A    0.0000
   5470 H         142.0323    1.1221    7.7439 H       482      M_A    0.0000
   5471 Si        144.2747    2.0790   11.2662 Si      483      M_A    0.0000
   5472 C         143.0480    3.4365   10.6784 C.3     483      M_A    0.0000
   5473 C         143.2551    0.5171   11.7288 C.3     483      M_A    0.0000
   5474 O         145.2345    2.6163   12.5703 O.3     483      M_A    0.0000
   5475 H         142.3291    3.6921   11.4880 H       483      M_A    0.0000
   5476 H         143.5962    4.3613   10.3915 H       483      M_A    0.0000
   5477 H         142.4666    3.0839    9.7975 H       483      M_A    0.0000
   5478 H         142.5381    0.7458   12.5481 H       483      M_A    0.0000
   5479 H         143.9270   -0.3018   12.0693 H       483      M_A    0.0000
   5480 H         142.6744    0.1547   10.8514 H       483      M_A    0.0000
   5481 Si        144.5808    3.3456   13.6197 Si      484      M_A    0.0000
   5482 C         144.4994    5.1867   13.0750 C.3     484      M_A    0.0000
   5483 C         142.7812    2.6829   13.7446 C.3     484      M_A    0.0000
   5484 O         145.4268    3.1580   15.0893 O.3     484      M_A    0.0000
   5485 H         143.9350    5.7909   13.8194 H       484      M_A    0.0000
   5486 H         145.5231    5.6125   12.9816 H       484      M_A    0.0000
   5487 H         143.9871    5.2818   12.0918 H       484      M_A    0.0000
   5488 H         142.2010    3.2641   14.4952 H       484      M_A    0.0000
   5489 H         142.7787    1.6133   14.0512 H       484      M_A    0.0000
   5490 H         142.2632    2.7696   12.7636 H       484      M_A    0.0000
   5491 Si        144.6848    3.3170   16.3076 Si      485      M_A    0.0000
   5492 C         143.3688    4.6842   16.0042 C.3     485      M_A    0.0000
   5493 C         143.7600    1.6648   16.6365 C.3     485      M_A    0.0000
   5494 O         145.7320    3.7217   17.5922 O.3     485      M_A    0.0000
   5495 H         142.7121    4.8003   16.8947 H       485      M_A    0.0000
   5496 H         143.8600    5.6616   15.8010 H       485      M_A    0.0000
   5497 H         142.7278    4.4240   15.1327 H       485      M_A    0.0000
   5498 H         143.1069    1.7532   17.5328 H       485      M_A    0.0000
   5499 H         144.4849    0.8389   16.8109 H       485      M_A    0.0000
   5500 H         143.1202    1.3945   15.7670 H       485      M_A    0.0000
   5501 Si        145.1726    4.4339   18.7057 Si      486      M_A    0.0000
   5502 C         145.2538    6.3079   18.2881 C.3     486      M_A    0.0000
   5503 C         143.3217    3.9339   18.8359 C.3     486      M_A    0.0000
   5504 O         146.0284    4.0673   20.1354 O.3     486      M_A    0.0000
   5505 H         144.7650    6.9087   19.0867 H       486      M_A    0.0000
   5506 H         146.3109    6.6424   18.1951 H       486      M_A    0.0000
   5507 H         144.7319    6.5180   17.3281 H       486      M_A    0.0000
   5508 H         142.8150    4.5129   19.6395 H       486      M_A    0.0000
   5509 H         143.2247    2.8504   19.0700 H       486      M_A    0.0000
   5510 H         142.7932    4.1360   17.8777 H       486      M_A    0.0000
   5511 Si        145.3786    4.3384   21.3862 Si      487      M_A    0.0000
   5512 C         144.1978    5.8289   21.1086 C.3     487      M_A    0.0000
   5513 C         144.3065    2.8039   21.8209 C.3     487      M_A    0.0000
   5514 O         146.5349    4.6652   22.5974 O.3     487      M_A    0.0000
   5515 H         143.6093    6.0392   22.0291 H       487      M_A    0.0000
   5516 H         144.7761    6.7424   20.8459 H       487      M_A    0.0000
   5517 H         143.4837    5.6141   20.2826 H       487      M_A    0.0000
   5518 H         143.7190    2.9864   22.7479 H       487      M_A    0.0000
   5519 H         144.9497    1.9108   21.9835 H       487      M_A    0.0000
   5520 H         143.5928    2.5790   20.9972 H       487      M_A    0.0000
   5521 Si        146.1036    5.4166   23.7418 Si      488      M_A    0.0000
   5522 C         146.6989    7.2274   23.4973 C.3     488      M_A    0.0000
   5523 C         144.1819    5.4173   23.7373 C.3     488      M_A    0.0000
   5524 O         146.7320    4.7323   25.1727 O.3     488      M_A    0.0000
   5525 H         146.3286    7.8761   24.3218 H       488      M_A    0.0000
   5526 H         147.8105    7.2754   23.4856 H       488      M_A    0.0000
   5527 H         146.3183    7.6382   22.5358 H       488      M_A    0.0000
   5528 H         143.7884    6.0494   24.5640 H       488      M_A    0.0000
   5529 H         143.7901    4.3843   23.8689 H       488      M_A    0.0000
   5530 H         143.7928    5.8220   22.7765 H       488      M_A    0.0000
   5531 Si        146.1233    5.1154   26.4148 Si      489      M_A    0.0000
   5532 C         147.5202    5.7698   27.5610 C.3     489      M_A    0.0000
   5533 C         144.9280    6.5735   26.0430 C.3     489      M_A    0.0000
   5534 O         145.3055    3.7889   27.1092 O.3     489      M_A    0.0000
   5535 H         147.0964    6.1517   28.5161 H       489      M_A    0.0000
   5536 H         148.2438    4.9585   27.7981 H       489      M_A    0.0000
   5537 H         148.0721    6.6018   27.0697 H       489      M_A    0.0000
   5538 H         144.4804    6.9628   26.9842 H       489      M_A    0.0000
   5539 H         144.1034    6.2422   25.3735 H       489      M_A    0.0000
   5540 H         145.4713    7.4082   25.5466 H       489      M_A    0.0000
   5541 Si        145.1505    3.7774   28.5361 Si      490      M_A    0.0000
   5542 C         145.5049    1.9869   29.1377 C.3     490      M_A    0.0000
   5543 C         146.5027    4.9291   29.2698 C.3     490      M_A    0.0000
   5544 O         143.5815    4.2901   28.9673 O.3     490      M_A    0.0000
   5545 H         145.4718    1.9332   30.2484 H       490      M_A    0.0000
   5546 H         144.7483    1.2804   28.7298 H       490      M_A    0.0000
   5547 H         146.5132    1.6544   28.8047 H       490      M_A    0.0000
   5548 H         146.4788    4.9024   30.3818 H       490      M_A    0.0000
   5549 H         146.3421    5.9798   28.9409 H       490      M_A    0.0000
   5550 H         147.5144    4.6064   28.9373 H       490      M_A    0.0000
   5551 Si        143.4620    5.5208   29.6962 Si      491      M_A    0.0000
   5552 C         142.6998    5.1015   31.4098 C.3     491      M_A    0.0000
   5553 C         145.2393    6.1922   29.9848 C.3     491      M_A    0.0000
   5554 O         142.4992    6.6322   28.8311 O.3     491      M_A    0.0000
   5555 H         142.6511    6.0102   32.0498 H       491      M_A    0.0000
   5556 H         141.6687    4.7003   31.2916 H       491      M_A    0.0000
   5557 H         143.3163    4.3395   31.9365 H       491      M_A    0.0000
   5558 H         145.2140    7.1110   30.6117 H       491      M_A    0.0000
   5559 H         145.7251    6.4424   29.0155 H       491      M_A    0.0000
   5560 H         145.8643    5.4338   30.5068 H       491      M_A    0.0000
   5561 Si        142.6659    8.0267   29.1275 Si      492      M_A    0.0000
   5562 C         141.0526    8.9241   28.5937 C.3     492      M_A    0.0000
   5563 C         142.8346    8.1921   31.0347 C.3     492      M_A    0.0000
   5564 O         144.0324    8.6470   28.3160 O.2     492      M_A    0.0000
   5565 H         141.0946   10.0015   28.8680 H       492      M_A    0.0000
   5566 H         140.9085    8.8478   27.4931 H       492      M_A    0.0000
   5567 H         140.1688    8.4727   29.0970 H       492      M_A    0.0000
   5568 H         142.8930    9.2628   31.3313 H       492      M_A    0.0000
   5569 H         143.7548    7.6787   31.3919 H       492      M_A    0.0000
   5570 H         141.9567    7.7384   31.5462 H       492      M_A    0.0000
   5571 Si        148.2962    3.9126    0.6244 Si      493      M_A    0.0000
   5572 C         149.4370    4.8475   -0.1899 C.3     493      M_A    0.0000
   5573 C         146.8269    4.7363    0.5891 C.3     493      M_A    0.0000
   5574 O         148.7269    3.6074    2.0238 O.3     493      M_A    0.0000
   5575 H         149.5424    5.7150    0.2432 H       493      M_A    0.0000
   5576 H         150.3040    4.4005   -0.1978 H       493      M_A    0.0000
   5577 H         149.1599    5.0005   -1.1127 H       493      M_A    0.0000
   5578 H         146.9083    5.6028    1.0294 H       493      M_A    0.0000
   5579 H         146.1349    4.2229    1.0465 H       493      M_A    0.0000
   5580 H         146.5410    4.8889   -0.3311 H       493      M_A    0.0000
   5581 Si        149.8865    3.1474    2.1888 Si      494      M_A    0.0000
   5582 C         149.8197    2.0640    3.4775 C.3     494      M_A    0.0000
   5583 C         150.2867    2.2811    0.8003 C.3     494      M_A    0.0000
   5584 O         150.8549    4.2575    2.4478 O.3     494      M_A    0.0000
   5585 H         150.6833    1.6292    3.6056 H       494      M_A    0.0000
   5586 H         149.5833    2.5271    4.3028 H       494      M_A    0.0000
   5587 H         149.1531    1.3718    3.3097 H       494      M_A    0.0000
   5588 H         151.1546    1.8482    0.9039 H       494      M_A    0.0000
   5589 H         150.3292    2.8738    0.0268 H       494      M_A    0.0000
   5590 H         149.6217    1.5896    0.6236 H       494      M_A    0.0000
   5591 Si        150.4007    5.3237    2.9380 Si      495      M_A    0.0000
   5592 C         149.2168    5.8974    1.8854 C.3     495      M_A    0.0000
   5593 C         149.6545    4.9296    4.3962 C.3     495      M_A    0.0000
   5594 O         151.5010    6.3186    3.1297 O.3     495      M_A    0.0000
   5595 H         148.7861    6.6916    2.2530 H       495      M_A    0.0000
   5596 H         149.6087    6.1315    1.0234 H       495      M_A    0.0000
   5597 H         148.5303    5.2200    1.7390 H       495      M_A    0.0000
   5598 H         149.2278    5.7149    4.7869 H       495      M_A    0.0000
   5599 H         150.3078    4.5856    5.0337 H       495      M_A    0.0000
   5600 H         148.9694    4.2489    4.2582 H       495      M_A    0.0000
   5601 Si        151.2172    7.3943    3.7178 Si      496      M_A    0.0000
   5602 C         151.9237    8.6484    2.8421 C.3     496      M_A    0.0000
   5603 C         149.5448    7.5837    3.6417 C.3     496      M_A    0.0000
   5604 O         151.7073    7.3603    5.1305 O.3     496      M_A    0.0000
   5605 H         151.6787    9.5128    3.2217 H       496      M_A    0.0000
   5606 H         152.8960    8.5710    2.8560 H       496      M_A    0.0000
   5607 H         151.6254    8.6290    1.9134 H       496      M_A    0.0000
   5608 H         149.2780    8.4383    4.0286 H       496      M_A    0.0000
   5609 H         149.0963    6.8703    4.1332 H       496      M_A    0.0000
   5610 H         149.2386    7.5607    2.7157 H       496      M_A    0.0000
   5611 Si        151.6004    8.4145    5.8094 Si      497      M_A    0.0000
   5612 C         152.9049    8.4618    6.8745 C.3     497      M_A    0.0000
   5613 C         151.7476    9.7142    4.7475 C.3     497      M_A    0.0000
   5614 O         150.2921    8.4365    6.5341 O.3     497      M_A    0.0000
   5615 H         152.9042    9.2950    7.3816 H       497      M_A    0.0000
   5616 H         152.8602    7.7184    7.5046 H       497      M_A    0.0000
   5617 H         153.7481    8.4035    6.3873 H       497      M_A    0.0000
   5618 H         151.7363   10.5589    5.2350 H       497      M_A    0.0000
   5619 H         151.0117    9.7189    4.1072 H       497      M_A    0.0000
   5620 H         152.5869    9.6601    4.2531 H       497      M_A    0.0000
   5621 Si        149.4894    9.3656    6.2584 Si      498      M_A    0.0000
   5622 C         149.6725    9.7197    4.6214 C.3     498      M_A    0.0000
   5623 C         147.9308    8.7699    6.4913 C.3     498      M_A    0.0000
   5624 O         149.7604   10.5597    7.1174 O.3     498      M_A    0.0000
   5625 H         149.0242   10.3924    4.3410 H       498      M_A    0.0000
   5626 H         150.5680   10.0627    4.4428 H       498      M_A    0.0000
   5627 H         149.5340    8.9203    4.0797 H       498      M_A    0.0000
   5628 H         147.2665    9.4339    6.2281 H       498      M_A    0.0000
   5629 H         147.7861    8.5455    7.4296 H       498      M_A    0.0000
   5630 H         147.7865    7.9672    5.9559 H       498      M_A    0.0000
   5631 Si        149.6954   11.6935    6.5753 Si      499      M_A    0.0000
   5632 C         150.6745   11.6532    5.2048 C.3     499      M_A    0.0000
   5633 C         148.1037   11.9203    6.0719 C.3     499      M_A    0.0000
   5634 O         150.1295   12.7551    7.5354 O.3     499      M_A    0.0000
   5635 H         150.6082   12.4915    4.7106 H       499      M_A    0.0000
   5636 H         151.6076   11.5162    5.4539 H       499      M_A    0.0000
   5637 H         150.4036   10.9283    4.6107 H       499      M_A    0.0000
   5638 H         148.0137   12.7611    5.5857 H       499      M_A    0.0000
   5639 H         147.5014   11.9428    6.8389 H       499      M_A    0.0000
   5640 H         147.8242   11.1963    5.4807 H       499      M_A    0.0000
   5641 Si        149.7791   13.9389    7.2918 Si      500      M_A    0.0000
   5642 C         150.4709   14.3758    5.8190 C.3     500      M_A    0.0000
   5643 C         148.1051   13.9393    7.1014 C.3     500      M_A    0.0000
   5644 O         150.2111   14.8478    8.3983 O.3     500      M_A    0.0000
   5645 H         150.1763   15.2664    5.5520 H       500      M_A    0.0000
   5646 H         151.4441   14.3811    5.8855 H       500      M_A    0.0000
   5647 H         150.2124   13.7478    5.1187 H       500      M_A    0.0000
   5648 H         147.7887   14.8259    6.8462 H       500      M_A    0.0000
   5649 H         147.6653   13.6838    7.9338 H       500      M_A    0.0000
   5650 H         147.8387   13.3097    6.4054 H       500      M_A    0.0000
   5651 Si        149.4256   15.7723    8.7326 Si      501      M_A    0.0000
   5652 C         149.0302   16.6268    7.3354 C.3     501      M_A    0.0000
   5653 C         148.0196   15.0514    9.3175 C.3     501      M_A    0.0000
   5654 O         150.0648   16.6531    9.7586 O.3     501      M_A    0.0000
   5655 H         148.3699   17.3177    7.5306 H       501      M_A    0.0000
   5656 H         149.8220   17.0556    6.9601 H       501      M_A    0.0000
   5657 H         148.6543   16.0290    6.6623 H       501      M_A    0.0000
   5658 H         147.3501   15.7277    9.5309 H       501      M_A    0.0000
   5659 H         148.2078   14.5392   10.1261 H       501      M_A    0.0000
   5660 H         147.6403   14.4483    8.6510 H       501      M_A    0.0000
   5661 Si        151.0240   17.3781    9.3873 Si      502      M_A    0.0000
   5662 C         152.2966   16.3551    8.9717 C.3     502      M_A    0.0000
   5663 C         150.5323   18.1896    7.9951 C.3     502      M_A    0.0000
   5664 O         151.4099   18.3286   10.4757 O.3     502      M_A    0.0000
   5665 H         153.0461   16.8670    8.6143 H       502      M_A    0.0000
   5666 H         152.6073   15.8597    9.7525 H       502      M_A    0.0000
   5667 H         152.0144   15.7150    8.2918 H       502      M_A    0.0000
   5668 H         151.2654   18.7184    7.6288 H       502      M_A    0.0000
   5669 H         149.7891   18.7899    8.1926 H       502      M_A    0.0000
   5670 H         150.2441   17.5556    7.3119 H       502      M_A    0.0000
   5671 Si        150.5896   18.5035   11.4138 Si      503      M_A    0.0000
   5672 C         149.0672   18.7039   10.7204 C.3     503      M_A    0.0000
   5673 C         150.5628   17.0895   12.3294 C.3     503      M_A    0.0000
   5674 O         150.9842   19.6888   12.2362 O.3     503      M_A    0.0000
   5675 H         148.3825   18.7790   11.4109 H       503      M_A    0.0000
   5676 H         149.0428   19.5118   10.1742 H       503      M_A    0.0000
   5677 H         148.8449   17.9413   10.1540 H       503      M_A    0.0000
   5678 H         149.8919   17.1498   13.0347 H       503      M_A    0.0000
   5679 H         151.4317   16.9331   12.7442 H       503      M_A    0.0000
   5680 H         150.3456   16.3215   11.7684 H       503      M_A    0.0000
   5681 Si        151.7354   20.5448   11.7009 Si      504      M_A    0.0000
   5682 C         153.2804   20.3265   12.3364 C.3     504      M_A    0.0000
   5683 C         151.7966   20.2004   10.0528 C.3     504      M_A    0.0000
   5684 O         151.2196   21.9247   11.9598 O.3     504      M_A    0.0000
   5685 H         153.9172   20.9259   11.9044 H       504      M_A    0.0000
   5686 H         153.2863   20.5105   13.2943 H       504      M_A    0.0000
   5687 H         153.5829   19.4098   12.1959 H       504      M_A    0.0000
   5688 H         152.4198   20.7986    9.5998 H       504      M_A    0.0000
   5689 H         150.9163   20.3090    9.6468 H       504      M_A    0.0000
   5690 H         152.0942   19.2832    9.9047 H       504      M_A    0.0000
   5691 Si        150.5164   22.0998   12.9886 Si      505      M_A    0.0000
   5692 C         150.1273   20.5778   13.5975 C.3     505      M_A    0.0000
   5693 C         151.4772   22.8864   14.1273 C.3     505      M_A    0.0000
   5694 O         149.2926   22.8921   12.6540 O.3     505      M_A    0.0000
   5695 H         149.6347   20.6588   14.4354 H       505      M_A    0.0000
   5696 H         149.5746   20.0854   12.9623 H       505      M_A    0.0000
   5697 H         150.9361   20.0601   13.7696 H       505      M_A    0.0000
   5698 H         150.9970   22.9886   14.9700 H       505      M_A    0.0000
   5699 H         151.7307   23.7727   13.8084 H       505      M_A    0.0000
   5700 H         152.2905   22.3763   14.3011 H       505      M_A    0.0000
   5701 Si        149.2847   24.1109   12.9671 Si      506      M_A    0.0000
   5702 C         150.8841   24.6405   12.9697 C.3     506      M_A    0.0000
   5703 C         148.4641   24.9380   11.7500 C.3     506      M_A    0.0000
   5704 O         148.6357   24.3015   14.3011 O.3     506      M_A    0.0000
   5705 H         150.9281   25.5992   13.1441 H       506      M_A    0.0000
   5706 H         151.3970   24.1788   13.6591 H       506      M_A    0.0000
   5707 H         151.3036   24.4695   12.1057 H       506      M_A    0.0000
   5708 H         148.4859   25.8993   11.9132 H       506      M_A    0.0000
   5709 H         147.5318   24.6539   11.7109 H       506      M_A    0.0000
   5710 H         148.8756   24.7679   10.8819 H       506      M_A    0.0000
   5711 Si        149.2195   25.0452   15.1316 Si      507      M_A    0.0000
   5712 C         150.8610   25.0320   14.7523 C.3     507      M_A    0.0000
   5713 C         148.6432   26.6109   14.8973 C.3     507      M_A    0.0000
   5714 O         148.9691   24.5654   16.5260 O.2     507      M_A    0.0000
   5715 H         151.3517   25.6466   15.3292 H       507      M_A    0.0000
   5716 H         151.2327   24.1378   14.8691 H       507      M_A    0.0000
   5717 H         151.0015   25.3067   13.8268 H       507      M_A    0.0000
   5718 H         149.1136   27.2401   15.4756 H       507      M_A    0.0000
   5719 H         147.6905   26.6597   15.1008 H       507      M_A    0.0000
   5720 H         148.7764   26.8908   13.9723 H       507      M_A    0.0000
   5721 Si        147.1111   -1.6513    2.0410 Si      508      M_A    0.0000
   5722 C         147.1932   -3.2886    1.5085 C.3     508      M_A    0.0000
   5723 C         148.5288   -1.3193    2.9633 C.3     508      M_A    0.0000
   5724 O         145.8365   -1.3792    2.8427 O.3     508      M_A    0.0000
   5725 H         147.2334   -3.9100    2.2882 H       508      M_A    0.0000
   5726 H         146.3907   -3.5205    0.9626 H       508      M_A    0.0000
   5727 H         148.0079   -3.4361    0.9513 H       508      M_A    0.0000
   5728 H         148.5813   -1.9226    3.7564 H       508      M_A    0.0000
   5729 H         148.5240   -0.3750    3.2863 H       508      M_A    0.0000
   5730 H         149.3480   -1.4602    2.4110 H       508      M_A    0.0000
   5731 Si        145.9718   -0.9411    4.0457 Si      509      M_A    0.0000
   5732 C         147.2518    0.2131    4.0326 C.3     509      M_A    0.0000
   5733 C         144.5157   -0.1173    4.4605 C.3     509      M_A    0.0000
   5734 O         146.2614   -2.0980    5.0044 O.3     509      M_A    0.0000
   5735 H         147.3547    0.6338    4.9315 H       509      M_A    0.0000
   5736 H         148.1155   -0.2237    3.7892 H       509      M_A    0.0000
   5737 H         147.0657    0.9363    3.3706 H       509      M_A    0.0000
   5738 H         144.5934    0.3004    5.3634 H       509      M_A    0.0000
   5739 H         143.7452   -0.7514    4.4727 H       509      M_A    0.0000
   5740 H         144.3205    0.6048    3.7999 H       509      M_A    0.0000
   5741 Si        147.4906   -2.3193    5.3166 Si      510      M_A    0.0000
   5742 C         148.1347   -3.3999    4.1383 C.3     510      M_A    0.0000
   5743 C         148.3334   -0.8217    5.1833 C.3     510      M_A    0.0000
   5744 O         147.5851   -2.8993    6.7294 O.3     510      M_A    0.0000
   5745 H         149.1079   -3.5530    4.2969 H       510      M_A    0.0000
   5746 H         147.6673   -4.2807    4.1775 H       510      M_A    0.0000
   5747 H         148.0249   -3.0243    3.2202 H       510      M_A    0.0000
   5748 H         149.3084   -0.9511    5.3515 H       510      M_A    0.0000
   5749 H         147.9847   -0.1627    5.8467 H       510      M_A    0.0000
   5750 H         148.2242   -0.4375    4.2687 H       510      M_A    0.0000
   5751 Si        148.4345   -3.8458    6.9290 Si      511      M_A    0.0000
   5752 C         148.7989   -4.5427    5.3953 C.3     511      M_A    0.0000
   5753 C         149.8748   -3.1246    7.5424 C.3     511      M_A    0.0000
   5754 O         147.8607   -4.8803    7.8997 O.3     511      M_A    0.0000
   5755 H         149.5058   -5.2412    5.4858 H       511      M_A    0.0000
   5756 H         147.9864   -4.9669    5.0007 H       511      M_A    0.0000
   5757 H         149.1303   -3.8455    4.7627 H       511      M_A    0.0000
   5758 H         150.5915   -3.8100    7.6526 H       511      M_A    0.0000
   5759 H         149.7047   -2.7018    8.4302 H       511      M_A    0.0000
   5760 H         150.2097   -2.4226    6.9170 H       511      M_A    0.0000
   5761 Si        148.6819   -5.7154    8.4340 Si      512      M_A    0.0000
   5762 C         149.2809   -6.7268    7.1733 C.3     512      M_A    0.0000
   5763 C         150.0050   -4.8066    9.0620 C.3     512      M_A    0.0000
   5764 O         147.9816   -6.5260    9.5266 O.3     512      M_A    0.0000
   5765 H         149.9746   -7.3523    7.5244 H       512      M_A    0.0000
   5766 H         148.5420   -7.2674    6.7764 H       512      M_A    0.0000
   5767 H         149.6950   -6.1781    6.4498 H       512      M_A    0.0000
   5768 H         150.7053   -5.4144    9.4304 H       512      M_A    0.0000
   5769 H         149.6985   -4.2003    9.7930 H       512      M_A    0.0000
   5770 H         150.4215   -4.2514    8.3448 H       512      M_A    0.0000
   5771 Si        148.7216   -7.2111   10.3267 Si      513      M_A    0.0000
   5772 C         149.5538   -8.3863    9.3794 C.3     513      M_A    0.0000
   5773 C         149.8933   -6.1362   10.9920 C.3     513      M_A    0.0000
   5774 O         147.8671   -7.8629   11.4159 O.3     513      M_A    0.0000
   5775 H         150.1939   -8.9033    9.9438 H       513      M_A    0.0000
   5776 H         148.9082   -9.0269    8.9688 H       513      M_A    0.0000
   5777 H         150.0704   -7.9457    8.6479 H       513      M_A    0.0000
   5778 H         150.5365   -6.6326   11.5713 H       513      M_A    0.0000
   5779 H         149.4505   -5.4331   11.5446 H       513      M_A    0.0000
   5780 H         150.4111   -5.6882   10.2659 H       513      M_A    0.0000
   5781 Si        148.4778   -8.3585   12.4351 Si      514      M_A    0.0000
   5782 C         149.7347   -9.3755   11.8379 C.3     514      M_A    0.0000
   5783 C         149.2098   -7.0491   13.2838 C.3     514      M_A    0.0000
   5784 O         147.4967   -9.1301   13.3204 O.3     514      M_A    0.0000
   5785 H         150.2833   -9.7346   12.5901 H       514      M_A    0.0000
   5786 H         149.3521  -10.1460   11.3321 H       514      M_A    0.0000
   5787 H         150.3389   -8.8660   11.2285 H       514      M_A    0.0000
   5788 H         149.7535   -7.3868   14.0493 H       514      M_A    0.0000
   5789 H         148.5136   -6.4300   13.6416 H       514      M_A    0.0000
   5790 H         149.8122   -6.5318   12.6792 H       514      M_A    0.0000
   5791 Si        147.9676   -9.7017   14.3733 Si      515      M_A    0.0000
   5792 C         149.2841  -10.6961   13.8744 C.3     515      M_A    0.0000
   5793 C         148.5931   -8.4631   15.3958 C.3     515      M_A    0.0000
   5794 O         146.8756  -10.5152   15.0712 O.3     515      M_A    0.0000
   5795 H         149.7288  -11.1128   14.6646 H       515      M_A    0.0000
   5796 H         148.9646  -11.4252   13.2726 H       515      M_A    0.0000
   5797 H         149.9652  -10.1566   13.3834 H       515      M_A    0.0000
   5798 H         149.0314   -8.8593   16.1999 H       515      M_A    0.0000
   5799 H         147.8608   -7.8585   15.7026 H       515      M_A    0.0000
   5800 H         149.2719   -7.9161   14.9098 H       515      M_A    0.0000
   5801 Si        147.1762  -11.0813   16.1876 Si      516      M_A    0.0000
   5802 C         148.7549  -11.7516   16.0165 C.3     516      M_A    0.0000
   5803 C         147.2488   -9.8467   17.3881 C.3     516      M_A    0.0000
   5804 O         146.1407  -12.1521   16.5376 O.3     516      M_A    0.0000
   5805 H         149.0642  -12.1468   16.8789 H       516      M_A    0.0000
   5806 H         148.7581  -12.4689   15.3227 H       516      M_A    0.0000
   5807 H         149.4080  -11.0471   15.7457 H       516      M_A    0.0000
   5808 H         147.5442  -10.2244   18.2632 H       516      M_A    0.0000
   5809 H         146.3524   -9.4263   17.5136 H       516      M_A    0.0000
   5810 H         147.8968   -9.1358   17.1220 H       516      M_A    0.0000
   5811 Si        146.4427  -12.9921   17.4652 Si      517      M_A    0.0000
   5812 C         145.7442  -14.5079   17.0347 C.3     517      M_A    0.0000
   5813 C         148.1567  -13.1739   17.4573 C.3     517      M_A    0.0000
   5814 O         145.9315  -12.4966   18.8196 O.3     517      M_A    0.0000
   5815 H         146.0048  -15.2137   17.6902 H       517      M_A    0.0000
   5816 H         144.7484  -14.4439   17.0209 H       517      M_A    0.0000
   5817 H         146.0552  -14.7937   16.1305 H       517      M_A    0.0000
   5818 H         148.4395  -13.8674   18.1166 H       517      M_A    0.0000
   5819 H         148.6018  -12.3132   17.6958 H       517      M_A    0.0000
   5820 H         148.4758  -13.4552   16.5544 H       517      M_A    0.0000
   5821 Si        145.9610  -13.3232   19.8060 Si      518      M_A    0.0000
   5822 C         144.6220  -12.9548   20.8269 C.3     518      M_A    0.0000
   5823 C         145.7204  -14.9034   19.1611 C.3     518      M_A    0.0000
   5824 O         147.2913  -13.2126   20.5540 O.3     518      M_A    0.0000
   5825 H         144.5599  -13.6115   21.5756 H       518      M_A    0.0000
   5826 H         144.7192  -12.0414   21.2170 H       518      M_A    0.0000
   5827 H         143.7678  -12.9893   20.3118 H       518      M_A    0.0000
   5828 H         145.6684  -15.5780   19.8945 H       518      M_A    0.0000
   5829 H         146.4736  -15.1538   18.5563 H       518      M_A    0.0000
   5830 H         144.8699  -14.9444   18.6405 H       518      M_A    0.0000
   5831 Si        147.5514  -14.1076   21.4421 Si      519      M_A    0.0000
   5832 C         146.7912  -13.6144   22.9082 C.3     519      M_A    0.0000
   5833 C         146.8111  -15.5760   20.9257 C.3     519      M_A    0.0000
   5834 O         149.0639  -14.2647   21.6128 O.3     519      M_A    0.0000
   5835 H         146.9069  -14.3092   23.6150 H       519      M_A    0.0000
   5836 H         147.1877  -12.7604   23.2389 H       519      M_A    0.0000
   5837 H         145.8131  -13.4749   22.7669 H       519      M_A    0.0000
   5838 H         146.9270  -16.2889   21.6143 H       519      M_A    0.0000
   5839 H         147.2196  -15.8936   20.0724 H       519      M_A    0.0000
   5840 H         145.8331  -15.4430   20.7778 H       519      M_A    0.0000
   5841 Si        149.5177  -15.4474   21.8422 Si      520      M_A    0.0000
   5842 C         148.1716  -16.5239   21.8448 C.3     520      M_A    0.0000
   5843 C         150.5379  -15.8731   20.5198 C.3     520      M_A    0.0000
   5844 O         150.2718  -15.4795   23.1732 O.3     520      M_A    0.0000
   5845 H         148.4768  -17.4677   21.9532 H       520      M_A    0.0000
   5846 H         147.5499  -16.3064   22.5945 H       520      M_A    0.0000
   5847 H         147.6670  -16.4573   20.9863 H       520      M_A    0.0000
   5848 H         150.8648  -16.8109   20.6160 H       520      M_A    0.0000
   5849 H         151.3295  -15.2668   20.4781 H       520      M_A    0.0000
   5850 H         150.0412  -15.8042   19.6568 H       520      M_A    0.0000
   5851 Si        149.6608  -15.9753   24.1921 Si      521      M_A    0.0000
   5852 C         148.0506  -16.3421   23.6987 C.3     521      M_A    0.0000
   5853 C         150.4458  -17.4566   24.5927 C.3     521      M_A    0.0000
   5854 O         149.6847  -14.9872   25.3602 O.3     521      M_A    0.0000
   5855 H         147.5511  -16.7920   24.4361 H       521      M_A    0.0000
   5856 H         147.5613  -15.5085   23.4504 H       521      M_A    0.0000
   5857 H         148.0557  -16.9527   22.9092 H       521      M_A    0.0000
   5858 H         149.9684  -17.9168   25.3383 H       521      M_A    0.0000
   5859 H         151.3871  -17.2887   24.8783 H       521      M_A    0.0000
   5860 H         150.4590  -18.0709   23.8062 H       521      M_A    0.0000
   5861 Si        149.0172  -13.8942   25.2293 Si      522      M_A    0.0000
   5862 C         150.0781  -12.5930   25.6199 C.3     522      M_A    0.0000
   5863 C         148.5865  -13.7497   23.5666 C.3     522      M_A    0.0000
   5864 O         147.7840  -13.9115   26.1349 O.2     522      M_A    0.0000
   5865 H         149.6275  -11.7154   25.4702 H       522      M_A    0.0000
   5866 H         150.3579  -12.6437   26.5765 H       522      M_A    0.0000
   5867 H         150.8962  -12.6236   25.0492 H       522      M_A    0.0000
   5868 H         148.1223  -12.8826   23.3980 H       522      M_A    0.0000
   5869 H         147.9756  -14.4911   23.2968 H       522      M_A    0.0000
   5870 H         149.3997  -13.7841   22.9890 H       522      M_A    0.0000
   5871 Si        155.1323   -1.1576    0.1048 Si      523      M_A    0.0000
   5872 C         155.9611   -2.5334   -0.2465 C.3     523      M_A    0.0000
   5873 C         155.8709   -0.4313    1.3814 C.3     523      M_A    0.0000
   5874 O         153.7244   -1.4292    0.3775 O.3     523      M_A    0.0000
   5875 H         155.9581   -3.1258    0.4984 H       523      M_A    0.0000
   5876 H         155.5666   -2.9815   -0.9879 H       523      M_A    0.0000
   5877 H         156.8664   -2.3331   -0.4622 H       523      M_A    0.0000
   5878 H         155.8671   -1.0045    2.1413 H       523      M_A    0.0000
   5879 H         155.4226    0.3760    1.6124 H       523      M_A    0.0000
   5880 H         156.7759   -0.2240    1.1712 H       523      M_A    0.0000
   5881 Si        153.1762   -2.3058   -0.2851 Si      524      M_A    0.0000
   5882 C         151.5598   -2.0073   -0.2530 C.3     524      M_A    0.0000
   5883 C         153.6924   -2.1432   -1.8376 C.3     524      M_A    0.0000
   5884 O         153.4935   -3.6241    0.2550 O.3     524      M_A    0.0000
   5885 H         151.0938   -2.6256   -0.8066 H       524      M_A    0.0000
   5886 H         151.2227   -2.0854    0.6337 H       524      M_A    0.0000
   5887 H         151.3752   -1.1286   -0.5695 H       524      M_A    0.0000
   5888 H         153.2460   -2.7628   -2.4057 H       524      M_A    0.0000
   5889 H         154.6290   -2.3025   -1.8972 H       524      M_A    0.0000
   5890 H         153.5149   -1.2650   -2.1593 H       524      M_A    0.0000
   5891 Si        154.3158   -3.6823    1.1651 Si      525      M_A    0.0000
   5892 C         155.5454   -4.6472    0.6551 C.3     525      M_A    0.0000
   5893 C         154.9156   -2.1671    1.3829 C.3     525      M_A    0.0000
   5894 O         153.6928   -4.1971    2.3804 O.3     525      M_A    0.0000
   5895 H         156.2415   -4.6739    1.3037 H       525      M_A    0.0000
   5896 H         155.2357   -5.5357    0.5109 H       525      M_A    0.0000
   5897 H         155.9122   -4.3197   -0.1600 H       525      M_A    0.0000
   5898 H         155.6059   -2.1710    2.0381 H       525      M_A    0.0000
   5899 H         154.2298   -1.5743    1.6732 H       525      M_A    0.0000
   5900 H         155.2803   -1.8313    0.5702 H       525      M_A    0.0000
   5901 Si        154.3881   -4.2650    3.3903 Si      526      M_A    0.0000
   5902 C         155.7429   -5.1100    2.9981 C.3     526      M_A    0.0000
   5903 C         154.8397   -2.7329    3.7798 C.3     526      M_A    0.0000
   5904 O         153.6481   -4.9028    4.4746 O.3     526      M_A    0.0000
   5905 H         156.3461   -5.1364    3.7338 H       526      M_A    0.0000
   5906 H         155.5218   -6.0045    2.7591 H       526      M_A    0.0000
   5907 H         156.1901   -4.7032    2.2627 H       526      M_A    0.0000
   5908 H         155.4346   -2.7375    4.5227 H       526      M_A    0.0000
   5909 H         154.0792   -2.2077    4.0077 H       526      M_A    0.0000
   5910 H         155.2839   -2.3182    3.0470 H       526      M_A    0.0000
   5911 Si        153.9315   -4.5772    5.6242 Si      527      M_A    0.0000
   5912 C         154.9787   -3.3131    5.5327 C.3     527      M_A    0.0000
   5913 C         152.5504   -4.0425    6.3381 C.3     527      M_A    0.0000
   5914 O         154.5099   -5.7074    6.3443 O.3     527      M_A    0.0000
   5915 H         155.1808   -2.9818    6.4018 H       527      M_A    0.0000
   5916 H         155.7920   -3.5817    5.1175 H       527      M_A    0.0000
   5917 H         154.6015   -2.6018    5.0248 H       527      M_A    0.0000
   5918 H         152.7302   -3.7179    7.2145 H       527      M_A    0.0000
   5919 H         151.9135   -4.7468    6.4038 H       527      M_A    0.0000
   5920 H         152.1651   -3.3337    5.8328 H       527      M_A    0.0000
   5921 Si        154.1903   -5.8551    7.5207 Si      528      M_A    0.0000
   5922 C         154.5279   -4.4483    8.3018 C.3     528      M_A    0.0000
   5923 C         152.5624   -6.0817    7.5628 C.3     528      M_A    0.0000
   5924 O         154.9086   -6.9835    8.1045 O.3     528      M_A    0.0000
   5925 H         154.2387   -4.4902    9.2076 H       528      M_A    0.0000
   5926 H         155.4643   -4.2774    8.2935 H       528      M_A    0.0000
   5927 H         154.0844   -3.7177    7.8826 H       528      M_A    0.0000
   5928 H         152.2551   -6.1386    8.4618 H       528      M_A    0.0000
   5929 H         152.3249   -6.8863    7.1132 H       528      M_A    0.0000
   5930 H         152.1123   -5.3565    7.1411 H       528      M_A    0.0000
   5931 Si        154.6158   -7.3115    9.2510 Si      529      M_A    0.0000
   5932 C         155.2738   -6.1963   10.2642 C.3     529      M_A    0.0000
   5933 C         152.9799   -7.2183    9.3861 C.3     529      M_A    0.0000
   5934 O         155.1061   -8.6565    9.5356 O.3     529      M_A    0.0000
   5935 H         155.0213   -6.3717   11.1649 H       529      M_A    0.0000
   5936 H         156.2240   -6.2145   10.2101 H       529      M_A    0.0000
   5937 H         154.9756   -5.3210   10.0378 H       529      M_A    0.0000
   5938 H         152.7064   -7.4030   10.2788 H       529      M_A    0.0000
   5939 H         152.5601   -7.8469    8.8076 H       529      M_A    0.0000
   5940 H         152.6741   -6.3464    9.1569 H       529      M_A    0.0000
   5941 Si        155.3897   -8.9232   10.7002 Si      530      M_A    0.0000
   5942 C         156.8169   -9.7392   10.6838 C.3     530      M_A    0.0000
   5943 C         155.6275   -7.4990   11.4864 C.3     530      M_A    0.0000
   5944 O         154.3246   -9.7091   11.3152 O.3     530      M_A    0.0000
   5945 H         157.1129   -9.9145   11.5712 H       530      M_A    0.0000
   5946 H         156.7219  -10.5703   10.2295 H       530      M_A    0.0000
   5947 H         157.4890   -9.2295   10.2425 H       530      M_A    0.0000
   5948 H         155.9125   -7.6538   12.3812 H       530      M_A    0.0000
   5949 H         154.8221   -6.9922   11.5116 H       530      M_A    0.0000
   5950 H         156.2956   -6.9818   11.0478 H       530      M_A    0.0000
   5951 Si        154.6352  -10.4732   12.2248 Si      531      M_A    0.0000
   5952 C         154.7576  -11.9806   11.5800 C.3     531      M_A    0.0000
   5953 C         156.1252  -10.0249   12.7557 C.3     531      M_A    0.0000
   5954 O         153.6422  -10.4211   13.2933 O.3     531      M_A    0.0000
   5955 H         155.0590  -12.6018   12.2351 H       531      M_A    0.0000
   5956 H         153.9130  -12.2746   11.2540 H       531      M_A    0.0000
   5957 H         155.3782  -11.9867   10.8582 H       531      M_A    0.0000
   5958 H         156.4392  -10.6282   13.4216 H       531      M_A    0.0000
   5959 H         156.0974   -9.1510   13.1319 H       531      M_A    0.0000
   5960 H         156.7504  -10.0245   12.0378 H       531      M_A    0.0000
   5961 Si        153.5099  -11.4201   13.9951 Si      532      M_A    0.0000
   5962 C         151.9110  -11.8023   14.0092 C.3     532      M_A    0.0000
   5963 C         154.3195  -12.6476   13.2598 C.3     532      M_A    0.0000
   5964 O         154.0172  -11.1668   15.3400 O.3     532      M_A    0.0000
   5965 H         151.7638  -12.6101   14.4906 H       532      M_A    0.0000
   5966 H         151.4051  -11.1101   14.4228 H       532      M_A    0.0000
   5967 H         151.5877  -11.9230   13.1220 H       532      M_A    0.0000
   5968 H         154.1945  -13.4632   13.7344 H       532      M_A    0.0000
   5969 H         155.2522  -12.4604   13.2259 H       532      M_A    0.0000
   5970 H         154.0043  -12.7712   12.3701 H       532      M_A    0.0000
   5971 Si        154.5346  -12.1061   15.9382 Si      533      M_A    0.0000
   5972 C         154.7972  -13.3023   14.8413 C.3     533      M_A    0.0000
   5973 C         155.9958  -11.5924   16.4896 C.3     533      M_A    0.0000
   5974 O         153.6717  -12.5516   17.0278 O.3     533      M_A    0.0000
   5975 H         155.2564  -14.0320   15.2446 H       533      M_A    0.0000
   5976 H         153.9718  -13.6233   14.4923 H       533      M_A    0.0000
   5977 H         155.3266  -12.9827   14.1176 H       533      M_A    0.0000
   5978 H         156.4659  -12.3064   16.9080 H       533      M_A    0.0000
   5979 H         155.8863  -10.8922   17.1250 H       533      M_A    0.0000
   5980 H         156.5292  -11.2671   15.7713 H       533      M_A    0.0000
   5981 Si        154.0963  -13.4395   17.7621 Si      534      M_A    0.0000
   5982 C         155.5027  -13.9862   17.1092 C.3     534      M_A    0.0000
   5983 C         154.4438  -12.7517   19.2144 C.3     534      M_A    0.0000
   5984 O         153.1094  -14.5070   17.8916 O.3     534      M_A    0.0000
   5985 H         155.9058  -14.6350   17.6770 H       534      M_A    0.0000
   5986 H         155.3440  -14.3874   16.2607 H       534      M_A    0.0000
   5987 H         156.1189  -13.2699   16.9935 H       534      M_A    0.0000
   5988 H         154.8372  -13.3892   19.8015 H       534      M_A    0.0000
   5989 H         153.6526  -12.4155   19.6232 H       534      M_A    0.0000
   5990 H         155.0565  -12.0312   19.1057 H       534      M_A    0.0000
   5991 Si        153.3457  -15.4046   18.6956 Si      535      M_A    0.0000
   5992 C         154.3165  -14.7750   19.8635 C.3     535      M_A    0.0000
   5993 C         151.9185  -15.8267   19.3940 C.3     535      M_A    0.0000
   5994 O         153.9741  -16.5370   18.0224 O.3     535      M_A    0.0000
   5995 H         154.4778  -15.4172   20.5473 H       535      M_A    0.0000
   5996 H         155.1541  -14.5113   19.4961 H       535      M_A    0.0000
   5997 H         153.9090  -14.0129   20.2629 H       535      M_A    0.0000
   5998 H         152.0577  -16.4785   20.0734 H       535      M_A    0.0000
   5999 H         151.3238  -16.1911   18.7462 H       535      M_A    0.0000
   6000 H         151.5030  -15.0682   19.7918 H       535      M_A    0.0000
   6001 Si        154.7420  -17.2339   18.6801 Si      536      M_A    0.0000
   6002 C         154.4097  -16.9672   20.2680 C.3     536      M_A    0.0000
   6003 C         154.3901  -18.8043   18.3439 C.3     536      M_A    0.0000
   6004 O         156.1273  -16.9088   18.3555 O.3     536      M_A    0.0000
   6005 H         154.9381  -17.5340   20.8207 H       536      M_A    0.0000
   6006 H         154.5951  -16.0632   20.5014 H       536      M_A    0.0000
   6007 H         153.4928  -17.1444   20.4526 H       536      M_A    0.0000
   6008 H         154.9183  -19.3880   18.8789 H       536      M_A    0.0000
   6009 H         154.5638  -18.9975   17.4282 H       536      M_A    0.0000
   6010 H         153.4731  -18.9876   18.5221 H       536      M_A    0.0000
   6011 Si        156.6096  -15.9022   18.8675 Si      537      M_A    0.0000
   6012 C         157.3025  -15.0225   17.6638 C.3     537      M_A    0.0000
   6013 C         155.3666  -15.0233   19.4885 C.3     537      M_A    0.0000
   6014 O         157.5786  -16.2695   19.8953 O.3     537      M_A    0.0000
   6015 H         157.6371  -14.1979   18.0013 H       537      M_A    0.0000
   6016 H         158.0257  -15.5021   17.2726 H       537      M_A    0.0000
   6017 H         156.6665  -14.8277   16.9827 H       537      M_A    0.0000
   6018 H         155.6835  -14.1987   19.8428 H       537      M_A    0.0000
   6019 H         154.9337  -15.5034   20.1872 H       537      M_A    0.0000
   6020 H         154.7242  -14.8285   18.8135 H       537      M_A    0.0000
   6021 Si        157.4566  -17.3715   20.4232 Si      538      M_A    0.0000
   6022 C         156.4549  -18.2635   19.4724 C.3     538      M_A    0.0000
   6023 C         158.9367  -18.0871   20.4141 C.3     538      M_A    0.0000
   6024 O         156.9325  -17.2305   21.7781 O.3     538      M_A    0.0000
   6025 H         156.3780  -19.1512   19.8068 H       538      M_A    0.0000
   6026 H         155.5857  -17.8764   19.4465 H       538      M_A    0.0000
   6027 H         156.7909  -18.3100   18.5829 H       538      M_A    0.0000
   6028 H         158.8826  -18.9733   20.7572 H       538      M_A    0.0000
   6029 H         159.5497  -17.5947   20.9505 H       538      M_A    0.0000
   6030 H         159.2810  -18.1330   19.5277 H       538      M_A    0.0000
   6031 Si        155.7890  -17.6255   21.9888 Si      539      M_A    0.0000
   6032 C         154.9392  -16.3618   22.6083 C.3     539      M_A    0.0000
   6033 C         155.1291  -18.0179   20.5351 C.3     539      M_A    0.0000
   6034 O         155.8052  -18.7651   22.9006 O.2     539      M_A    0.0000
   6035 H         154.0258  -16.6001   22.7307 H       539      M_A    0.0000
   6036 H         155.2961  -16.0995   23.4508 H       539      M_A    0.0000
   6037 H         154.9741  -15.6142   22.0200 H       539      M_A    0.0000
   6038 H         154.2175  -18.2714   20.6383 H       539      M_A    0.0000
   6039 H         155.5995  -18.7447   20.1393 H       539      M_A    0.0000
   6040 H         155.1647  -17.2758   19.9398 H       539      M_A    0.0000
   6041 Si        160.4279   -0.6727   -0.1795 Si      540      M_A    0.0000
   6042 C         160.9281   -2.3546   -0.3940 C.3     540      M_A    0.0000
   6043 C         161.5563    0.0939    0.9447 C.3     540      M_A    0.0000
   6044 O         158.9449   -0.5668    0.3226 O.3     540      M_A    0.0000
   6045 H         160.9079   -2.8532    0.4995 H       540      M_A    0.0000
   6046 H         160.3027   -2.8355   -1.0459 H       540      M_A    0.0000
   6047 H         161.8812   -2.4024   -0.7640 H       540      M_A    0.0000
   6048 H         161.5419   -0.3822    1.8504 H       540      M_A    0.0000
   6049 H         161.3061    1.0753    1.0922 H       540      M_A    0.0000
   6050 H         162.5115    0.0543    0.5791 H       540      M_A    0.0000
   6051 Si        158.2467   -1.6843    0.4053 Si      541      M_A    0.0000
   6052 C         157.6259   -1.7983    2.0565 C.3     541      M_A    0.0000
   6053 C         156.8665   -1.5270   -0.6878 C.3     541      M_A    0.0000
   6054 O         159.1439   -2.9175    0.0352 O.3     541      M_A    0.0000
   6055 H         157.0185   -2.6157    2.1575 H       541      M_A    0.0000
   6056 H         158.3959   -1.8840    2.7252 H       541      M_A    0.0000
   6057 H         157.0810   -0.9651    2.2946 H       541      M_A    0.0000
   6058 H         156.2521   -2.3419   -0.6121 H       541      M_A    0.0000
   6059 H         157.1829   -1.4507   -1.6581 H       541      M_A    0.0000
   6060 H         156.3191   -0.6929   -0.4589 H       541      M_A    0.0000
   6061 Si        159.4485   -3.7634    1.0021 Si      542      M_A    0.0000
   6062 C         157.9495   -4.5556    1.5024 C.3     542      M_A    0.0000
   6063 C         160.5128   -4.9941    0.3113 C.3     542      M_A    0.0000
   6064 O         160.1321   -3.0065    2.1947 O.3     542      M_A    0.0000
   6065 H         158.1391   -5.2737    2.2064 H       542      M_A    0.0000
   6066 H         157.2992   -3.8747    1.9033 H       542      M_A    0.0000
   6067 H         157.4957   -5.0054    0.7027 H       542      M_A    0.0000
   6068 H         160.7260   -5.7163    1.0044 H       542      M_A    0.0000
   6069 H         161.3935   -4.5750    0.0009 H       542      M_A    0.0000
   6070 H         160.0676   -5.4454   -0.4923 H       542      M_A    0.0000
   6071 Si        159.5323   -3.0505    3.3701 Si      543      M_A    0.0000
   6072 C         159.0693   -1.3968    3.7891 C.3     543      M_A    0.0000
   6073 C         158.0536   -3.9989    3.1734 C.3     543      M_A    0.0000
   6074 O         160.4862   -3.6777    4.4469 O.3     543      M_A    0.0000
   6075 H         158.5381   -1.3820    4.6637 H       543      M_A    0.0000
   6076 H         159.8993   -0.8094    3.9058 H       543      M_A    0.0000
   6077 H         158.4846   -0.9894    3.0543 H       543      M_A    0.0000
   6078 H         157.5131   -4.0079    4.0423 H       543      M_A    0.0000
   6079 H         158.2769   -4.9656    2.9224 H       543      M_A    0.0000
   6080 H         157.4655   -3.6002    2.4365 H       543      M_A    0.0000
   6081 Si        160.5334   -3.0987    5.6325 Si      544      M_A    0.0000
   6082 C         162.0993   -2.2889    5.7629 C.3     544      M_A    0.0000
   6083 C         159.2730   -1.8597    5.6658 C.3     544      M_A    0.0000
   6084 O         160.3328   -4.1627    6.7684 O.3     544      M_A    0.0000
   6085 H         162.1620   -1.7649    6.6397 H       544      M_A    0.0000
   6086 H         162.8608   -2.9724    5.7405 H       544      M_A    0.0000
   6087 H         162.2305   -1.6319    4.9890 H       544      M_A    0.0000
   6088 H         159.3098   -1.3318    6.5417 H       544      M_A    0.0000
   6089 H         158.3464   -2.2869    5.5854 H       544      M_A    0.0000
   6090 H         159.3947   -1.2013    4.8916 H       544      M_A    0.0000
   6091 Si        160.0766   -3.7171    7.9845 Si      545      M_A    0.0000
   6092 C         161.2906   -2.4894    8.3638 C.3     545      M_A    0.0000
   6093 C         158.4965   -2.9261    7.9352 C.3     545      M_A    0.0000
   6094 O         160.1031   -4.8992    9.0163 O.3     545      M_A    0.0000
   6095 H         161.0976   -2.0606    9.2728 H       545      M_A    0.0000
   6096 H         162.2252   -2.9054    8.3955 H       545      M_A    0.0000
   6097 H         161.2885   -1.7502    7.6559 H       545      M_A    0.0000
   6098 H         158.2778   -2.5013    8.8402 H       545      M_A    0.0000
   6099 H         157.7623   -3.6029    7.7108 H       545      M_A    0.0000
   6100 H         158.4851   -2.1883    7.2258 H       545      M_A    0.0000
   6101 Si        160.1947   -4.5905   10.2967 Si      546      M_A    0.0000
   6102 C         161.8386   -4.0071   10.5830 C.3     546      M_A    0.0000
   6103 C         159.0797   -3.2523   10.5984 C.3     546      M_A    0.0000
   6104 O         159.8579   -5.8394   11.1852 O.3     546      M_A    0.0000
   6105 H         161.9447   -3.6889   11.5499 H       546      M_A    0.0000
   6106 H         162.5195   -4.7519   10.4121 H       546      M_A    0.0000
   6107 H         162.0550   -3.2216    9.9635 H       546      M_A    0.0000
   6108 H         159.1604   -2.9271   11.5654 H       546      M_A    0.0000
   6109 H         158.1128   -3.5463   10.4367 H       546      M_A    0.0000
   6110 H         159.2869   -2.4643    9.9789 H       546      M_A    0.0000
   6111 Si        160.1198   -5.7587   12.4767 Si      547      M_A    0.0000
   6112 C         161.8760   -5.6636   12.6546 C.3     547      M_A    0.0000
   6113 C         159.4282   -4.2409   13.0621 C.3     547      M_A    0.0000
   6114 O         159.5252   -6.9985   13.2331 O.3     547      M_A    0.0000
   6115 H         162.1320   -5.5307   13.6365 H       547      M_A    0.0000
   6116 H         162.3186   -6.5233   12.3194 H       547      M_A    0.0000
   6117 H         162.2501   -4.8760   12.1184 H       547      M_A    0.0000
   6118 H         159.6617   -4.0950   14.0477 H       547      M_A    0.0000
   6119 H         158.4089   -4.2510   12.9702 H       547      M_A    0.0000
   6120 H         159.7941   -3.4486   12.5273 H       547      M_A    0.0000
   6121 Si        159.9356   -7.2143   14.4693 Si      548      M_A    0.0000
   6122 C         161.6006   -7.8010   14.3782 C.3     548      M_A    0.0000
   6123 C         159.9506   -5.6544   15.3007 C.3     548      M_A    0.0000
   6124 O         158.9941   -8.2457   15.1852 O.3     548      M_A    0.0000
   6125 H         161.9924   -7.9205   15.3160 H       548      M_A    0.0000
   6126 H         161.6384   -8.7028   13.8956 H       548      M_A    0.0000
   6127 H         162.1894   -7.1361   13.8693 H       548      M_A    0.0000
   6128 H         160.3272   -5.7541   16.2471 H       548      M_A    0.0000
   6129 H         159.0029   -5.2742   15.3692 H       548      M_A    0.0000
   6130 H         160.5338   -4.9823   14.7949 H       548      M_A    0.0000
   6131 Si        159.4407   -8.8168   16.2886 Si      549      M_A    0.0000
   6132 C         159.8200  -10.4983   15.8967 C.3     549      M_A    0.0000
   6133 C         160.9477   -8.0055   16.7306 C.3     549      M_A    0.0000
   6134 O         158.3684   -8.7135   17.4297 O.3     549      M_A    0.0000
   6135 H         160.2357  -10.9713   16.7034 H       549      M_A    0.0000
   6136 H         158.9725  -11.0049   15.6273 H       549      M_A    0.0000
   6137 H         160.4864  -10.5459   15.1212 H       549      M_A    0.0000
   6138 H         161.3738   -8.4556   17.5450 H       549      M_A    0.0000
   6139 H         160.7737   -7.0232   16.9593 H       549      M_A    0.0000
   6140 H         161.6179   -8.0447   15.9579 H       549      M_A    0.0000
   6141 Si        158.7486   -9.0246   18.6551 Si      550      M_A    0.0000
   6142 C         160.4277   -8.5025   18.8358 C.3     550      M_A    0.0000
   6143 C         157.7586   -8.0772   19.7719 C.3     550      M_A    0.0000
   6144 O         158.5893  -10.5662   18.9016 O.3     550      M_A    0.0000
   6145 H         160.7527   -8.6592   19.7935 H       550      M_A    0.0000
   6146 H         161.0369   -9.0234   18.1993 H       550      M_A    0.0000
   6147 H         160.5189   -7.5045   18.6277 H       550      M_A    0.0000
   6148 H         158.0590   -8.2299   20.7381 H       550      M_A    0.0000
   6149 H         156.7735   -8.3440   19.6944 H       550      M_A    0.0000
   6150 H         157.8408   -7.0777   19.5668 H       550      M_A    0.0000
   6151 Si        158.8977  -11.0284   20.0993 Si      551      M_A    0.0000
   6152 C         159.4516  -12.6947   19.8960 C.3     551      M_A    0.0000
   6153 C         160.2560  -10.0706   20.7014 C.3     551      M_A    0.0000
   6154 O         157.6559  -10.9410   21.0548 O.3     551      M_A    0.0000
   6155 H         159.7688  -13.0804   20.7892 H       551      M_A    0.0000
   6156 H         158.6945  -13.2846   19.5407 H       551      M_A    0.0000
   6157 H         160.2324  -12.7365   19.2355 H       551      M_A    0.0000
   6158 H         160.5807  -10.4322   21.6020 H       551      M_A    0.0000
   6159 H         159.9793   -9.0933   20.8271 H       551      M_A    0.0000
   6160 H         161.0395  -10.1037   20.0436 H       551      M_A    0.0000
   6161 Si        157.7877  -11.4303   22.2740 Si      552      M_A    0.0000
   6162 C         156.2809  -12.2635   22.6745 C.3     552      M_A    0.0000
   6163 C         159.0810  -12.6343   22.2229 C.3     552      M_A    0.0000
   6164 O         158.1044  -10.2798   23.2931 O.3     552      M_A    0.0000
   6165 H         156.3539  -12.7215   23.5867 H       552      M_A    0.0000
   6166 H         155.5014  -11.6011   22.7076 H       552      M_A    0.0000
   6167 H         156.0683  -12.9795   21.9745 H       552      M_A    0.0000
   6168 H         159.1797  -13.0958   23.1310 H       552      M_A    0.0000
   6169 H         159.9738  -12.1934   21.9865 H       552      M_A    0.0000
   6170 H         158.8777  -13.3516   21.5215 H       552      M_A    0.0000
   6171 Si        158.5889  -10.6242   24.4720 Si      553      M_A    0.0000
   6172 C         157.6821   -9.7294   25.6976 C.3     553      M_A    0.0000
   6173 C         158.2581  -12.3462   24.6963 C.3     553      M_A    0.0000
   6174 O         160.1254  -10.3132   24.5432 O.3     553      M_A    0.0000
   6175 H         157.9727  -10.0108   26.6376 H       553      M_A    0.0000
   6176 H         157.8404   -8.7231   25.5988 H       553      M_A    0.0000
   6177 H         156.6788   -9.9103   25.6067 H       553      M_A    0.0000
   6178 H         158.5540  -12.6516   25.6271 H       553      M_A    0.0000
   6179 H         158.7604  -12.9027   23.9995 H       553      M_A    0.0000
   6180 H         157.2567  -12.5358   24.6020 H       553      M_A    0.0000
   6181 Si        160.9537  -11.2076   24.0361 Si      554      M_A    0.0000
   6182 C         160.0623  -12.1184   22.8111 C.3     554      M_A    0.0000
   6183 C         162.2516  -10.3244   23.2234 C.3     554      M_A    0.0000
   6184 O         161.5071  -12.1431   25.1679 O.3     554      M_A    0.0000
   6185 H         160.6790  -12.7829   22.3365 H       554      M_A    0.0000
   6186 H         159.2939  -12.6411   23.2399 H       554      M_A    0.0000
   6187 H         159.6715  -11.4872   22.1065 H       554      M_A    0.0000
   6188 H         162.8885  -10.9725   22.7526 H       554      M_A    0.0000
   6189 H         162.7908   -9.7757   23.8984 H       554      M_A    0.0000
   6190 H         161.8681   -9.6872   22.5202 H       554      M_A    0.0000
   6191 Si        160.6604  -12.9826   25.7349 Si      555      M_A    0.0000
   6192 C         159.9525  -12.1579   27.1290 C.3     555      M_A    0.0000
   6193 C         159.3676  -13.2956   24.5706 C.3     555      M_A    0.0000
   6194 O         161.3981  -14.3030   26.1534 O.3     555      M_A    0.0000
   6195 H         159.2356  -12.7419   27.5673 H       555      M_A    0.0000
   6196 H         160.6713  -11.9508   27.8275 H       555      M_A    0.0000
   6197 H         159.5154  -11.2777   26.8428 H       555      M_A    0.0000
   6198 H         158.6453  -13.8901   24.9855 H       555      M_A    0.0000
   6199 H         159.7370  -13.7680   23.7412 H       555      M_A    0.0000
   6200 H         158.9285  -12.4192   24.2760 H       555      M_A    0.0000
   6201 Si        161.9942  -14.9975   25.2019 Si      556      M_A    0.0000
   6202 C         162.2933  -13.8958   23.8522 C.3     556      M_A    0.0000
   6203 C         163.5586  -15.5248   25.8339 C.3     556      M_A    0.0000
   6204 O         161.1008  -16.2141   24.7723 O.2     556      M_A    0.0000
   6205 H         162.8168  -14.3684   23.1106 H       556      M_A    0.0000
   6206 H         161.4099  -13.5598   23.4596 H       556      M_A    0.0000
   6207 H         162.8390  -13.0871   24.1617 H       556      M_A    0.0000
   6208 H         164.0937  -16.0123   25.1105 H       556      M_A    0.0000
   6209 H         163.4309  -16.1616   26.6249 H       556      M_A    0.0000
   6210 H         164.1085  -14.7214   26.1500 H       556      M_A    0.0000
   6211 Si        162.4365    3.9271   -1.9564 Si      557      M_A    0.0000
   6212 C         163.8990    4.1967   -2.9576 C.3     557      M_A    0.0000
   6213 C         161.0035    4.3724   -2.9374 C.3     557      M_A    0.0000
   6214 O         162.4957    4.7466   -0.5934 O.3     557      M_A    0.0000
   6215 H         163.9709    5.1932   -3.2386 H       557      M_A    0.0000
   6216 H         164.7552    3.9436   -2.4283 H       557      M_A    0.0000
   6217 H         163.8629    3.6196   -3.8198 H       557      M_A    0.0000
   6218 H         161.0488    5.3705   -3.2182 H       557      M_A    0.0000
   6219 H         160.1304    4.2242   -2.3960 H       557      M_A    0.0000
   6220 H         160.9577    3.7959   -3.7995 H       557      M_A    0.0000
   6221 Si        162.1816    6.0475   -0.6386 Si      558      M_A    0.0000
   6222 C         160.3929    6.1676   -0.6187 C.3     558      M_A    0.0000
   6223 C         162.8044    6.8015    0.8640 C.3     558      M_A    0.0000
   6224 O         162.8035    6.7227   -1.9387 O.3     558      M_A    0.0000
   6225 H         160.0938    7.1608   -0.5829 H       558      M_A    0.0000
   6226 H         159.9887    5.7348   -1.4712 H       558      M_A    0.0000
   6227 H         160.0036    5.6826    0.2124 H       558      M_A    0.0000
   6228 H         162.5274    7.8005    0.9135 H       558      M_A    0.0000
   6229 H         163.8404    6.7473    0.8970 H       558      M_A    0.0000
   6230 H         162.4230    6.3186    1.7001 H       558      M_A    0.0000
   6231 Si        163.2589    7.9770   -1.8278 Si      559      M_A    0.0000
   6232 C         163.3804    8.3500   -0.0784 C.3     559      M_A    0.0000
   6233 C         164.9133    8.0092   -2.5176 C.3     559      M_A    0.0000
   6234 O         162.2867    8.9879   -2.5800 O.3     559      M_A    0.0000
   6235 H         163.7953    9.2902    0.0667 H       559      M_A    0.0000
   6236 H         162.4416    8.3349    0.3639 H       559      M_A    0.0000
   6237 H         163.9817    7.6537    0.4025 H       559      M_A    0.0000
   6238 H         165.3423    8.9462   -2.3948 H       559      M_A    0.0000
   6239 H         164.8900    7.7905   -3.5320 H       559      M_A    0.0000
   6240 H         165.5197    7.3118   -2.0448 H       559      M_A    0.0000
   6241 Si        162.2346   10.2479   -2.1301 Si      560      M_A    0.0000
   6242 C         160.5974   10.8802   -2.4959 C.3     560      M_A    0.0000
   6243 C         162.4204   10.1885   -0.3480 C.3     560      M_A    0.0000
   6244 O         163.3723   11.1272   -2.8125 O.3     560      M_A    0.0000
   6245 H         160.4787   11.8346   -2.1058 H       560      M_A    0.0000
   6246 H         160.4442   10.9247   -3.5215 H       560      M_A    0.0000
   6247 H         159.8686   10.2685   -2.0808 H       560      M_A    0.0000
   6248 H         162.3185   11.1366    0.0619 H       560      M_A    0.0000
   6249 H         163.3560    9.8199   -0.0908 H       560      M_A    0.0000
   6250 H         161.6977    9.5745    0.0743 H       560      M_A    0.0000
   6251 Si        163.2143   12.4569   -2.8075 Si      561      M_A    0.0000
   6252 C         162.8672   12.9614   -4.4925 C.3     561      M_A    0.0000
   6253 C         161.7690   12.8208   -1.8112 C.3     561      M_A    0.0000
   6254 O         164.5186   13.1675   -2.2360 O.3     561      M_A    0.0000
   6255 H         162.6673   13.9790   -4.5354 H       561      M_A    0.0000
   6256 H         163.6788   12.7613   -5.1077 H       561      M_A    0.0000
   6257 H         162.0408   12.4539   -4.8628 H       561      M_A    0.0000
   6258 H         161.5590   13.8370   -1.8294 H       561      M_A    0.0000
   6259 H         161.9247   12.5367   -0.8250 H       561      M_A    0.0000
   6260 H         160.9389   12.3128   -2.1725 H       561      M_A    0.0000
   6261 Si        164.5677   14.5047   -2.2858 Si      562      M_A    0.0000
   6262 C         166.2568   14.9647   -2.6724 C.3     562      M_A    0.0000
   6263 C         163.5253   15.0287   -3.6470 C.3     562      M_A    0.0000
   6264 O         164.0886   15.1285   -0.9023 O.3     562      M_A    0.0000
   6265 H         166.3375   15.9926   -2.7913 H       562      M_A    0.0000
   6266 H         166.8981   14.6723   -1.9103 H       562      M_A    0.0000
   6267 H         166.5659   14.5121   -3.5539 H       562      M_A    0.0000
   6268 H         163.5809   16.0572   -3.7750 H       562      M_A    0.0000
   6269 H         162.5351   14.7745   -3.4671 H       562      M_A    0.0000
   6270 H         163.8253   14.5763   -4.5319 H       562      M_A    0.0000
   6271 Si        164.1175   16.4617   -0.7808 Si      563      M_A    0.0000
   6272 C         164.3619   16.8363    0.9553 C.3     563      M_A    0.0000
   6273 C         165.5509   17.0508   -1.6820 C.3     563      M_A    0.0000
   6274 O         162.7688   17.0980   -1.3370 O.3     563      M_A    0.0000
   6275 H         164.4611   17.8595    1.0979 H       563      M_A    0.0000
   6276 H         163.5548   16.5044    1.5173 H       563      M_A    0.0000
   6277 H         165.2216   16.3757    1.3107 H       563      M_A    0.0000
   6278 H         165.6610   18.0760   -1.5637 H       563      M_A    0.0000
   6279 H         165.4539   16.8471   -2.6952 H       563      M_A    0.0000
   6280 H         166.4146   16.5909   -1.3354 H       563      M_A    0.0000
   6281 Si        162.8077   17.6735   -2.5454 Si      564      M_A    0.0000
   6282 C         164.0985   16.8587   -3.4855 C.3     564      M_A    0.0000
   6283 C         161.2407   17.3380   -3.3492 C.3     564      M_A    0.0000
   6284 O         163.0764   19.2360   -2.4063 O.3     564      M_A    0.0000
   6285 H         164.1264   17.2207   -4.4578 H       564      M_A    0.0000
   6286 H         165.0260   17.0218   -3.0491 H       564      M_A    0.0000
   6287 H         163.9298   15.8353   -3.5265 H       564      M_A    0.0000
   6288 H         161.2423   17.7044   -4.3202 H       564      M_A    0.0000
   6289 H         160.4614   17.7873   -2.8313 H       564      M_A    0.0000
   6290 H         161.0625   16.3161   -3.3897 H       564      M_A    0.0000
   6291 Si        163.1833   19.9490   -3.5347 Si      565      M_A    0.0000
   6292 C         164.0999   18.9548   -4.7117 C.3     565      M_A    0.0000
   6293 C         161.5269   20.1841   -4.1789 C.3     565      M_A    0.0000
   6294 O         163.9064   21.3372   -3.2463 O.3     565      M_A    0.0000
   6295 H         164.1532   19.4334   -5.6311 H       565      M_A    0.0000
   6296 H         165.0668   18.7877   -4.3734 H       565      M_A    0.0000
   6297 H         163.6373   18.0361   -4.8521 H       565      M_A    0.0000
   6298 H         161.5566   20.6740   -5.0933 H       565      M_A    0.0000
   6299 H         160.9572   20.7512   -3.5223 H       565      M_A    0.0000
   6300 H         161.0558   19.2695   -4.3175 H       565      M_A    0.0000
   6301 Si        164.2700   22.0772   -4.3013 Si      566      M_A    0.0000
   6302 C         165.9079   21.5396   -4.7936 C.3     566      M_A    0.0000
   6303 C         163.1371   21.6976   -5.6379 C.3     566      M_A    0.0000
   6304 O         164.2446   23.6242   -3.9282 O.3     566      M_A    0.0000
   6305 H         166.2121   22.0351   -5.6533 H       566      M_A    0.0000
   6306 H         166.5971   21.7349   -4.0424 H       566      M_A    0.0000
   6307 H         165.9144   20.5201   -4.9888 H       566      M_A    0.0000
   6308 H         163.4158   22.1946   -6.5054 H       566      M_A    0.0000
   6309 H         162.1714   21.9872   -5.3910 H       566      M_A    0.0000
   6310 H         163.1343   20.6786   -5.8360 H       566      M_A    0.0000
   6311 Si        164.0130   24.4963   -4.9175 Si      567      M_A    0.0000
   6312 C         163.8712   23.5567   -6.4377 C.3     567      M_A    0.0000
   6313 C         162.4273   25.2668   -4.5922 C.3     567      M_A    0.0000
   6314 O         165.1853   25.5699   -4.9952 O.3     567      M_A    0.0000
   6315 H         163.6223   24.1790   -7.2301 H       567      M_A    0.0000
   6316 H         164.7690   23.0861   -6.6609 H       567      M_A    0.0000
   6317 H         163.1328   22.8321   -6.3516 H       567      M_A    0.0000
   6318 H         162.1651   25.9049   -5.3676 H       567      M_A    0.0000
   6319 H         162.4628   25.8177   -3.7131 H       567      M_A    0.0000
   6320 H         161.6841   24.5480   -4.4999 H       567      M_A    0.0000
   6321 Si        165.2055   26.5335   -4.0656 Si      568      M_A    0.0000
   6322 C         164.6483   28.0462   -4.8499 C.3     568      M_A    0.0000
   6323 C         164.0090   26.0886   -2.8069 C.3     568      M_A    0.0000
   6324 O         166.6690   26.6880   -3.4595 O.3     568      M_A    0.0000
   6325 H         164.5788   28.8139   -4.1550 H       568      M_A    0.0000
   6326 H         165.3114   28.3373   -5.5935 H       568      M_A    0.0000
   6327 H         163.7122   27.9122   -5.2782 H       568      M_A    0.0000
   6328 H         163.9335   26.8383   -2.0931 H       568      M_A    0.0000
   6329 H         164.2902   25.2104   -2.3303 H       568      M_A    0.0000
   6330 H         163.0708   25.9480   -3.2283 H       568      M_A    0.0000
   6331 Si        167.4240   27.6966   -3.9130 Si      569      M_A    0.0000
   6332 C         169.0667   27.0438   -4.2120 C.3     569      M_A    0.0000
   6333 C         166.7382   28.2136   -5.4867 C.3     569      M_A    0.0000
   6334 O         167.4462   28.8891   -2.8592 O.3     569      M_A    0.0000
   6335 H         169.6778   27.7703   -4.6314 H       569      M_A    0.0000
   6336 H         169.4997   26.7248   -3.3242 H       569      M_A    0.0000
   6337 H         169.0263   26.2386   -4.8660 H       569      M_A    0.0000
   6338 H         167.3279   28.9508   -5.9178 H       569      M_A    0.0000
   6339 H         165.7804   28.5932   -5.3602 H       569      M_A    0.0000
   6340 H         166.6899   27.4123   -6.1449 H       569      M_A    0.0000
   6341 Si        166.3610   29.6700   -2.7844 Si      570      M_A    0.0000
   6342 C         166.9266   31.3707   -2.7441 C.3     570      M_A    0.0000
   6343 C         165.4252   29.4327   -4.2950 C.3     570      M_A    0.0000
   6344 O         165.5026   29.3034   -1.4953 O.3     570      M_A    0.0000
   6345 H         166.1205   32.0243   -2.7554 H       570      M_A    0.0000
   6346 H         167.4814   31.5505   -1.8855 H       570      M_A    0.0000
   6347 H         167.5217   31.5773   -3.5693 H       570      M_A    0.0000
   6348 H         164.6052   30.0685   -4.3205 H       570      M_A    0.0000
   6349 H         165.0832   28.4551   -4.3626 H       570      M_A    0.0000
   6350 H         166.0152   29.6329   -5.1254 H       570      M_A    0.0000
   6351 Si        164.3769   28.6022   -1.6795 Si      571      M_A    0.0000
   6352 C         164.5106   27.7819   -3.2680 C.3     571      M_A    0.0000
   6353 C         164.3175   27.3403   -0.4074 C.3     571      M_A    0.0000
   6354 O         163.1094   29.5627   -1.6168 O.2     571      M_A    0.0000
   6355 H         163.6909   27.1668   -3.4318 H       571      M_A    0.0000
   6356 H         164.5552   28.4788   -4.0359 H       571      M_A    0.0000
   6357 H         165.3668   27.1961   -3.3055 H       571      M_A    0.0000
   6358 H         163.4960   26.7212   -0.5449 H       571      M_A    0.0000
   6359 H         164.2468   27.7736    0.5332 H       571      M_A    0.0000
   6360 H         165.1731   26.7531   -0.4354 H       571      M_A    0.0000
   6361 Si        170.6298    5.4555    1.4947 Si      572      M_A    0.0000
   6362 C         171.8813    6.6316    0.7062 C.3     572      M_A    0.0000
   6363 C         168.9146    6.2316    1.3302 C.3     572      M_A    0.0000
   6364 O         171.0110    5.1237    3.0944 O.3     572      M_A    0.0000
   6365 H         171.8719    7.6008    1.2136 H       572      M_A    0.0000
   6366 H         172.8921    6.2179    0.7718 H       572      M_A    0.0000
   6367 H         171.6424    6.7971   -0.3488 H       572      M_A    0.0000
   6368 H         168.8779    7.1971    1.8433 H       572      M_A    0.0000
   6369 H         168.1536    5.5791    1.7684 H       572      M_A    0.0000
   6370 H         168.6658    6.3958    0.2773 H       572      M_A    0.0000
   6371 Si        171.7577    3.9555    3.3590 Si      573      M_A    0.0000
   6372 C         170.8967    3.2460    4.7693 C.3     573      M_A    0.0000
   6373 C         171.8540    2.6985    2.0767 C.3     573      M_A    0.0000
   6374 O         173.2026    4.5015    3.7617 O.3     573      M_A    0.0000
   6375 H         171.4122    2.4189    5.1352 H       573      M_A    0.0000
   6376 H         170.8120    3.9453    5.5359 H       573      M_A    0.0000
   6377 H         169.9402    2.9375    4.4972 H       573      M_A    0.0000
   6378 H         172.3783    1.8664    2.4179 H       573      M_A    0.0000
   6379 H         172.3411    3.0708    1.2353 H       573      M_A    0.0000
   6380 H         170.9008    2.3882    1.7956 H       573      M_A    0.0000
   6381 Si        173.7981    5.3627    2.9206 Si      574      M_A    0.0000
   6382 C         175.5731    5.1138    3.0644 C.3     574      M_A    0.0000
   6383 C         173.3067    4.9098    1.2512 C.3     574      M_A    0.0000
   6384 O         173.3807    6.8625    3.2736 O.3     574      M_A    0.0000
   6385 H         176.0835    5.7104    2.3808 H       574      M_A    0.0000
   6386 H         175.9006    5.3583    4.0219 H       574      M_A    0.0000
   6387 H         175.8202    4.1201    2.8752 H       574      M_A    0.0000
   6388 H         173.7962    5.5045    0.5510 H       574      M_A    0.0000
   6389 H         172.2805    5.0325    1.1258 H       574      M_A    0.0000
   6390 H         173.5462    3.9155    1.0559 H       574      M_A    0.0000
   6391 Si        172.7693    7.0768    4.4500 Si      575      M_A    0.0000
   6392 C         171.4751    5.8395    4.6161 C.3     575      M_A    0.0000
   6393 C         173.9823    6.7899    5.7460 C.3     575      M_A    0.0000
   6394 O         172.1809    8.5596    4.5084 O.3     575      M_A    0.0000
   6395 H         171.0119    5.9162    5.5452 H       575      M_A    0.0000
   6396 H         170.7521    5.9648    3.8777 H       575      M_A    0.0000
   6397 H         171.8718    4.8807    4.5299 H       575      M_A    0.0000
   6398 H         173.5421    6.8753    6.6855 H       575      M_A    0.0000
   6399 H         174.7567    7.4829    5.6824 H       575      M_A    0.0000
   6400 H         174.3874    5.8343    5.6636 H       575      M_A    0.0000
   6401 Si        171.7911    9.0266    5.7058 Si      576      M_A    0.0000
   6402 C         170.6557    7.8223    6.4086 C.3     576      M_A    0.0000
   6403 C         173.2489    9.0953    6.7562 C.3     576      M_A    0.0000
   6404 O         171.1083   10.4608    5.5473 O.3     576      M_A    0.0000
   6405 H         170.3744    8.1019    7.3710 H       576      M_A    0.0000
   6406 H         169.7969    7.7451    5.8252 H       576      M_A    0.0000
   6407 H         171.1038    6.8839    6.4616 H       576      M_A    0.0000
   6408 H         172.9915    9.3866    7.7219 H       576      M_A    0.0000
   6409 H         173.9389    9.7784    6.3805 H       576      M_A    0.0000
   6410 H         173.7057    8.1612    6.8104 H       576      M_A    0.0000
   6411 Si        170.5892   11.0270    6.6489 Si      577      M_A    0.0000
   6412 C         168.9424   10.3427    6.8796 C.3     577      M_A    0.0000
   6413 C         171.6033   10.5174    8.0437 C.3     577      M_A    0.0000
   6414 O         170.5531   12.6153    6.4930 O.3     577      M_A    0.0000
   6415 H         168.5185   10.6970    7.7619 H       577      M_A    0.0000
   6416 H         168.3214   10.6085    6.0875 H       577      M_A    0.0000
   6417 H         168.9818    9.3036    6.9335 H       577      M_A    0.0000
   6418 H         171.2039   10.8734    8.9367 H       577      M_A    0.0000
   6419 H         172.5715   10.8876    7.9467 H       577      M_A    0.0000
   6420 H         171.6516    9.4789    8.1014 H       577      M_A    0.0000
   6421 Si        171.0865   13.3491    7.4834 Si      578      M_A    0.0000
   6422 C         170.5658   12.6118    9.0387 C.3     578      M_A    0.0000
   6423 C         172.8739   13.1930    7.3651 C.3     578      M_A    0.0000
   6424 O         170.6164   14.8699    7.3632 O.3     578      M_A    0.0000
   6425 H         171.0089   13.1021    9.8431 H       578      M_A    0.0000
   6426 H         169.5321   12.6743    9.1453 H       578      M_A    0.0000
   6427 H         170.8415   11.6086    9.0788 H       578      M_A    0.0000
   6428 H         173.3382   13.6885    8.1541 H       578      M_A    0.0000
   6429 H         173.2187   13.6026    6.4722 H       578      M_A    0.0000
   6430 H         173.1573   12.1917    7.3996 H       578      M_A    0.0000
   6431 Si        170.6167   15.6107    8.4834 Si      579      M_A    0.0000
   6432 C         169.3817   14.9136    9.5889 C.3     579      M_A    0.0000
   6433 C         172.2284   15.4153    9.2564 C.3     579      M_A    0.0000
   6434 O         170.3072   17.1385    8.1392 O.3     579      M_A    0.0000
   6435 H         169.3876   15.4094   10.5043 H       579      M_A    0.0000
   6436 H         168.4301   14.9996    9.1754 H       579      M_A    0.0000
   6437 H         169.5749   13.9057    9.7650 H       579      M_A    0.0000
   6438 H         172.2604   15.9157   10.1687 H       579      M_A    0.0000
   6439 H         172.9770   15.8009    8.6443 H       579      M_A    0.0000
   6440 H         172.4311   14.4091    9.4314 H       579      M_A    0.0000
   6441 Si        169.8981   17.9310    9.1433 Si      580      M_A    0.0000
   6442 C         168.1493   17.6054    9.4064 C.3     580      M_A    0.0000
   6443 C         170.7863   17.4257   10.6228 C.3     580      M_A    0.0000
   6444 O         170.1671   19.4636    8.7865 O.3     580      M_A    0.0000
   6445 H         167.7947   18.1452   10.2229 H       580      M_A    0.0000
   6446 H         167.5961   17.8780    8.5677 H       580      M_A    0.0000
   6447 H         167.9891   16.5936    9.5926 H       580      M_A    0.0000
   6448 H         170.4560   17.9638   11.4504 H       580      M_A    0.0000
   6449 H         171.8081   17.5909   10.5106 H       580      M_A    0.0000
   6450 H         170.6350   16.4133   10.8131 H       580      M_A    0.0000
   6451 Si        169.3601   20.3819    9.3425 Si      581      M_A    0.0000
   6452 C         168.0659   20.7522    8.1502 C.3     581      M_A    0.0000
   6453 C         168.5912   19.6220   10.7794 C.3     581      M_A    0.0000
   6454 O         170.1915   21.6862    9.7371 O.3     581      M_A    0.0000
   6455 H         167.3699   21.4105    8.5575 H       581      M_A    0.0000
   6456 H         168.4697   21.1890    7.2958 H       581      M_A    0.0000
   6457 H         167.5653   19.8830    7.8712 H       581      M_A    0.0000
   6458 H         167.8999   20.2699   11.2108 H       581      M_A    0.0000
   6459 H         169.3086   19.3837   11.4952 H       581      M_A    0.0000
   6460 H         168.0923   18.7489   10.5092 H       581      M_A    0.0000
   6461 Si        169.4988   22.7904   10.0606 Si      582      M_A    0.0000
   6462 C         167.7815   22.4970    9.6153 C.3     582      M_A    0.0000
   6463 C         169.5860   22.9753   11.8471 C.3     582      M_A    0.0000
   6464 O         170.0967   24.0628    9.3045 O.3     582      M_A    0.0000
   6465 H         167.1848   23.2979    9.9086 H       582      M_A    0.0000
   6466 H         167.6859   22.3765    8.5856 H       582      M_A    0.0000
   6467 H         167.4236   21.6380   10.0824 H       582      M_A    0.0000
   6468 H         169.0058   23.7806   12.1610 H       582      M_A    0.0000
   6469 H         170.5681   23.1405   12.1504 H       582      M_A    0.0000
   6470 H         169.2341   22.1179   12.3216 H       582      M_A    0.0000
   6471 Si        170.4448   25.1229   10.0519 Si      583      M_A    0.0000
   6472 C         169.5988   26.5583    9.3756 C.3     583      M_A    0.0000
   6473 C         169.8167   24.8389   11.7127 C.3     583      M_A    0.0000
   6474 O         172.0299   25.3122   10.0435 O.3     583      M_A    0.0000
   6475 H         169.7794   27.3998    9.9612 H       583      M_A    0.0000
   6476 H         169.9286   26.7551    8.4079 H       583      M_A    0.0000
   6477 H         168.5705   26.3977    9.3473 H       583      M_A    0.0000
   6478 H         169.9993   25.6646   12.3198 H       583      M_A    0.0000
   6479 H         170.2766   24.0088   12.1409 H       583      M_A    0.0000
   6480 H         168.7890   24.6726   11.6922 H       583      M_A    0.0000
   6481 Si        172.6833   25.1325   11.2030 Si      584      M_A    0.0000
   6482 C         171.8029   23.8641   12.1247 C.3     584      M_A    0.0000
   6483 C         174.3179   24.4973   10.8057 C.3     584      M_A    0.0000
   6484 O         172.7632   26.5049   12.0143 O.3     584      M_A    0.0000
   6485 H         172.3074   23.6348   13.0060 H       584      M_A    0.0000
   6486 H         170.8447   24.1888   12.3702 H       584      M_A    0.0000
   6487 H         171.7215   22.9921   11.5616 H       584      M_A    0.0000
   6488 H         174.8455   24.2738   11.6748 H       584      M_A    0.0000
   6489 H         174.8618   25.2001   10.2634 H       584      M_A    0.0000
   6490 H         174.2449   23.6274   10.2382 H       584      M_A    0.0000
   6491 Si        171.9172   26.6679   13.0446 Si      585      M_A    0.0000
   6492 C         171.4236   28.3968   13.0662 C.3     585      M_A    0.0000
   6493 C         170.4564   25.6769   12.7021 C.3     585      M_A    0.0000
   6494 O         172.6177   26.2357   14.4123 O.3     585      M_A    0.0000
   6495 H         170.7112   28.5654   13.8064 H       585      M_A    0.0000
   6496 H         172.2440   29.0093   13.2550 H       585      M_A    0.0000
   6497 H         171.0108   28.6714   12.1506 H       585      M_A    0.0000
   6498 H         169.7351   25.8205   13.4389 H       585      M_A    0.0000
   6499 H         170.6991   24.6649   12.6734 H       585      M_A    0.0000
   6500 H         170.0403   25.9424   11.7853 H       585      M_A    0.0000
   6501 Si        172.4286   24.9754   14.8361 Si      586      M_A    0.0000
   6502 C         171.9716   23.9897   13.4032 C.3     586      M_A    0.0000
   6503 C         174.0085   24.3707   15.4457 C.3     586      M_A    0.0000
   6504 O         171.3027   24.9324   15.9669 O.2     586      M_A    0.0000
   6505 H         171.8796   22.9858   13.6632 H       586      M_A    0.0000
   6506 H         171.0621   24.3119   13.0124 H       586      M_A    0.0000
   6507 H         172.6961   24.0668   12.6594 H       586      M_A    0.0000
   6508 H         173.9353   23.3704   15.7244 H       586      M_A    0.0000
   6509 H         174.3156   24.9206   16.2747 H       586      M_A    0.0000
   6510 H         174.7398   24.4491   14.7087 H       586      M_A    0.0000
   6511 Si        173.0127    1.3721    4.5501 Si      587      M_A    0.0000
   6512 C         172.5101    2.9936    5.0634 C.3     587      M_A    0.0000
   6513 C         171.7262    0.2339    4.9915 C.3     587      M_A    0.0000
   6514 O         174.3957    0.9628    5.1817 O.3     587      M_A    0.0000
   6515 H         172.3644    3.0223    6.0794 H       587      M_A    0.0000
   6516 H         173.2265    3.6877    4.8196 H       587      M_A    0.0000
   6517 H         171.6298    3.2605    4.6066 H       587      M_A    0.0000
   6518 H         171.5733    0.2371    6.0068 H       587      M_A    0.0000
   6519 H         171.9744   -0.7204    4.7048 H       587      M_A    0.0000
   6520 H         170.8433    0.4915    4.5345 H       587      M_A    0.0000
   6521 Si        174.4677   -0.2112    5.7911 Si      588      M_A    0.0000
   6522 C         173.0422   -1.1484    5.3059 C.3     588      M_A    0.0000
   6523 C         175.9070   -1.0422    5.1720 C.3     588      M_A    0.0000
   6524 O         174.5333   -0.0153    7.3520 O.3     588      M_A    0.0000
   6525 H         173.0825   -2.0965    5.6977 H       588      M_A    0.0000
   6526 H         172.1826   -0.6966    5.6395 H       588      M_A    0.0000
   6527 H         172.9926   -1.2270    4.2831 H       588      M_A    0.0000
   6528 H         175.9736   -1.9894    5.5626 H       588      M_A    0.0000
   6529 H         176.7583   -0.5270    5.4257 H       588      M_A    0.0000
   6530 H         175.8669   -1.1205    4.1488 H       588      M_A    0.0000
   6531 Si        173.5919    0.7260    7.9167 Si      589      M_A    0.0000
   6532 C         173.8927    2.4105    7.4503 C.3     589      M_A    0.0000
   6533 C         172.0383    0.2326    7.2177 C.3     589      M_A    0.0000
   6534 O         173.6130    0.5409    9.4802 O.3     589      M_A    0.0000
   6535 H         173.1495    3.0226    7.8069 H       589      M_A    0.0000
   6536 H         174.7896    2.7355    7.8301 H       589      M_A    0.0000
   6537 H         173.9198    2.5029    6.4279 H       589      M_A    0.0000
   6538 H         171.2781    0.8246    7.5722 H       589      M_A    0.0000
   6539 H         171.8278   -0.7432    7.4586 H       589      M_A    0.0000
   6540 H         172.0593    0.3177    6.1945 H       589      M_A    0.0000
   6541 Si        172.5611    0.9688   10.1622 Si      590      M_A    0.0000
   6542 C         172.2631    2.6488    9.6780 C.3     590      M_A    0.0000
   6543 C         171.1681   -0.0038    9.6531 C.3     590      M_A    0.0000
   6544 O         172.8242    0.8456   11.7097 O.3     590      M_A    0.0000
   6545 H         171.4137    3.0094   10.1282 H       590      M_A    0.0000
   6546 H         173.0520    3.2477    9.9488 H       590      M_A    0.0000
   6547 H         172.1386    2.7149    8.6608 H       590      M_A    0.0000
   6548 H         170.3086    0.3324   10.1030 H       590      M_A    0.0000
   6549 H         171.3030   -0.9891    9.9090 H       590      M_A    0.0000
   6550 H         171.0399    0.0534    8.6358 H       590      M_A    0.0000
   6551 Si        172.0407    1.5395   12.5217 Si      591      M_A    0.0000
   6552 C         172.2561    3.2553   12.1278 C.3     591      M_A    0.0000
   6553 C         170.3646    1.0971   12.1469 C.3     591      M_A    0.0000
   6554 O         172.4021    1.2360   14.0238 O.3     591      M_A    0.0000
   6555 H         171.6183    3.8367   12.6840 H       591      M_A    0.0000
   6556 H         173.2191    3.5526   12.3241 H       591      M_A    0.0000
   6557 H         172.0592    3.4254   11.1343 H       591      M_A    0.0000
   6558 H         169.7094    1.6587   12.7033 H       591      M_A    0.0000
   6559 H         170.1980    0.1054   12.3546 H       591      M_A    0.0000
   6560 H         170.1614    1.2600   11.1534 H       591      M_A    0.0000
   6561 Si        172.6743   -0.0194   14.3470 Si      592      M_A    0.0000
   6562 C         171.2837   -1.0058   13.8586 C.3     592      M_A    0.0000
   6563 C         174.0719   -0.5247   13.3791 C.3     592      M_A    0.0000
   6564 O         172.9603   -0.1382   15.8908 O.3     592      M_A    0.0000
   6565 H         171.4705   -2.0017   14.0250 H       592      M_A    0.0000
   6566 H         170.4474   -0.7400   14.3920 H       592      M_A    0.0000
   6567 H         171.0852   -0.8806   12.8588 H       592      M_A    0.0000
   6568 H         174.2845   -1.5161   13.5411 H       592      M_A    0.0000
   6569 H         174.9011    0.0285   13.6261 H       592      M_A    0.0000
   6570 H         173.8828   -0.3978   12.3777 H       592      M_A    0.0000
   6571 Si        172.3660    0.7326   16.6929 Si      593      M_A    0.0000
   6572 C         172.7995    2.3564   16.1265 C.3     593      M_A    0.0000
   6573 C         170.6156    0.5305   16.4906 C.3     593      M_A    0.0000
   6574 O         172.8119    0.4967   18.1844 O.3     593      M_A    0.0000
   6575 H         172.3088    3.0732   16.6739 H       593      M_A    0.0000
   6576 H         173.8100    2.5134   16.2198 H       593      M_A    0.0000
   6577 H         172.5416    2.4756   15.1396 H       593      M_A    0.0000
   6578 H         170.1049    1.2305   17.0414 H       593      M_A    0.0000
   6579 H         170.3218   -0.4031   16.8014 H       593      M_A    0.0000
   6580 H         170.3504    0.6436   15.5050 H       593      M_A    0.0000
   6581 Si        172.4656    1.4099   19.0793 Si      594      M_A    0.0000
   6582 C         173.5114    2.8203   18.8292 C.3     594      M_A    0.0000
   6583 C         170.7970    1.8945   18.7235 C.3     594      M_A    0.0000
   6584 O         172.6066    0.8303   20.5364 O.3     594      M_A    0.0000
   6585 H         173.2393    3.5876   19.4548 H       594      M_A    0.0000
   6586 H         174.4918    2.5808   19.0184 H       594      M_A    0.0000
   6587 H         173.4395    3.1562   17.8614 H       594      M_A    0.0000
   6588 H         170.5000    2.6533   19.3482 H       594      M_A    0.0000
   6589 H         170.1564    1.1020   18.8496 H       594      M_A    0.0000
   6590 H         170.7162    2.2273   17.7553 H       594      M_A    0.0000
   6591 Si        171.7261    1.2289   21.4424 Si      595      M_A    0.0000
   6592 C         171.5690    2.9889   21.2902 C.3     595      M_A    0.0000
   6593 C         170.1650    0.5005   21.0205 C.3     595      M_A    0.0000
   6594 O         172.1954    0.8077   22.8851 O.3     595      M_A    0.0000
   6595 H         170.8452    3.3436   21.9262 H       595      M_A    0.0000
   6596 H         172.4564    3.4517   21.5197 H       595      M_A    0.0000
   6597 H         171.3062    3.2466   20.3314 H       595      M_A    0.0000
   6598 H         169.4283    0.8323   21.6540 H       595      M_A    0.0000
   6599 H         170.2139   -0.5229   21.0889 H       595      M_A    0.0000
   6600 H         169.8976    0.7499   20.0608 H       595      M_A    0.0000
   6601 Si        172.0208    1.6811   23.8656 Si      596      M_A    0.0000
   6602 C         173.0535    3.0807   23.5189 C.3     596      M_A    0.0000
   6603 C         170.3314    2.2173   23.8031 C.3     596      M_A    0.0000
   6604 O         172.3736    1.0253   25.2529 O.3     596      M_A    0.0000
   6605 H         172.9054    3.8205   24.2153 H       596      M_A    0.0000
   6606 H         174.0443    2.8118   23.5382 H       596      M_A    0.0000
   6607 H         172.8393    3.4669   22.5918 H       596      M_A    0.0000
   6608 H         170.1583    2.9492   24.5020 H       596      M_A    0.0000
   6609 H         169.6964    1.4327   23.9921 H       596      M_A    0.0000
   6610 H         170.1081    2.6006   22.8768 H       596      M_A    0.0000
   6611 Si        171.4571    1.0808   26.2078 Si      597      M_A    0.0000
   6612 C         172.2959    1.4484   27.7266 C.3     597      M_A    0.0000
   6613 C         170.3820    2.4404   25.8321 C.3     597      M_A    0.0000
   6614 O         170.6694   -0.2800   26.2911 O.3     597      M_A    0.0000
   6615 H         171.6218    1.5705   28.4914 H       597      M_A    0.0000
   6616 H         172.9367    0.6867   27.9786 H       597      M_A    0.0000
   6617 H         172.8396    2.3152   27.6384 H       597      M_A    0.0000
   6618 H         169.6904    2.5715   26.5795 H       597      M_A    0.0000
   6619 H         169.8798    2.2710   24.9526 H       597      M_A    0.0000
   6620 H         170.9194    3.3104   25.7375 H       597      M_A    0.0000
   6621 Si        171.3268   -1.3884   25.9844 Si      598      M_A    0.0000
   6622 C         170.1595   -2.7233   26.0178 C.3     598      M_A    0.0000
   6623 C         171.9125   -1.2137   24.3194 C.3     598      M_A    0.0000
   6624 O         172.5094   -1.6222   26.9972 O.3     598      M_A    0.0000
   6625 H         170.6039   -3.5996   25.7198 H       598      M_A    0.0000
   6626 H         169.7886   -2.8548   26.9662 H       598      M_A    0.0000
   6627 H         169.3737   -2.5320   25.3849 H       598      M_A    0.0000
   6628 H         172.3730   -2.0762   24.0058 H       598      M_A    0.0000
   6629 H         172.5885   -0.4436   24.2535 H       598      M_A    0.0000
   6630 H         171.1325   -1.0174   23.6808 H       598      M_A    0.0000
   6631 Si        173.6223   -2.1642   26.5254 Si      599      M_A    0.0000
   6632 C         173.8074   -3.7505   27.2966 C.3     599      M_A    0.0000
   6633 C         173.3894   -2.4238   24.7865 C.3     599      M_A    0.0000
   6634 O         174.8539   -1.2272   26.8155 O.3     599      M_A    0.0000
   6635 H         174.6219   -4.2454   26.9145 H       599      M_A    0.0000
   6636 H         173.9382   -3.6463   28.3097 H       599      M_A    0.0000
   6637 H         172.9757   -4.3306   27.1340 H       599      M_A    0.0000
   6638 H         174.2000   -2.9064   24.3813 H       599      M_A    0.0000
   6639 H         173.2706   -1.5271   24.3004 H       599      M_A    0.0000
   6640 H         172.5563   -2.9994   24.6155 H       599      M_A    0.0000
   6641 Si        174.6022    0.0029   27.2376 Si      600      M_A    0.0000
   6642 C         174.6312    1.0664   25.8185 C.3     600      M_A    0.0000
   6643 C         172.9550    0.0109   27.8951 C.3     600      M_A    0.0000
   6644 O         175.6628    0.4402   28.3160 O.3     600      M_A    0.0000
   6645 H         174.3740    2.0253   26.0801 H       600      M_A    0.0000
   6646 H         175.5691    1.0854   25.4009 H       600      M_A    0.0000
   6647 H         173.9655    0.7393   25.1082 H       600      M_A    0.0000
   6648 H         172.6824    0.9601   28.1758 H       600      M_A    0.0000
   6649 H         172.8918   -0.6005   28.7177 H       600      M_A    0.0000
   6650 H         172.2836   -0.3198   27.1918 H       600      M_A    0.0000
   6651 Si        175.2364    1.1755   29.3319 Si      601      M_A    0.0000
   6652 C         173.7809    0.3943   29.9775 C.3     601      M_A    0.0000
   6653 C         176.4890    1.1232   30.5864 C.3     601      M_A    0.0000
   6654 O         174.9464    2.6488   28.8583 O.3     601      M_A    0.0000
   6655 H         173.4462    0.8880   30.8133 H       601      M_A    0.0000
   6656 H         173.0295    0.3966   29.2777 H       601      M_A    0.0000
   6657 H         173.9790   -0.5788   30.2390 H       601      M_A    0.0000
   6658 H         176.1792    1.6236   31.4278 H       601      M_A    0.0000
   6659 H         177.3550    1.5608   30.2503 H       601      M_A    0.0000
   6660 H         176.6962    0.1525   30.8499 H       601      M_A    0.0000
   6661 Si        173.7003    3.0885   28.9519 Si      602      M_A    0.0000
   6662 C         172.8845    2.6979   27.4263 C.3     602      M_A    0.0000
   6663 C         172.9101    2.1701   30.2471 C.3     602      M_A    0.0000
   6664 O         173.6856    4.6361   29.2416 O.2     602      M_A    0.0000
   6665 H         171.8920    2.9571   27.4705 H       602      M_A    0.0000
   6666 H         173.3171    3.2053   26.6455 H       602      M_A    0.0000
   6667 H         172.9436    1.6911   27.2326 H       602      M_A    0.0000
   6668 H         171.9178    2.4245   30.3171 H       602      M_A    0.0000
   6669 H         173.3580    2.3623   31.1509 H       602      M_A    0.0000
   6670 H         172.9693    1.1615   30.0628 H       602      M_A    0.0000
   6671 Si        178.1091    2.8148    3.8656 Si      603      M_A    0.0000
   6672 C         178.4308    4.4052    3.7272 C.3     603      M_A    0.0000
   6673 C         176.5409    2.6520    4.2732 C.3     603      M_A    0.0000
   6674 O         178.9810    2.1734    4.8239 O.3     603      M_A    0.0000
   6675 H         178.2729    4.8481    4.5444 H       603      M_A    0.0000
   6676 H         179.3317    4.5412    3.4849 H       603      M_A    0.0000
   6677 H         177.8818    4.7986    3.0693 H       603      M_A    0.0000
   6678 H         176.3656    3.0787    5.0954 H       603      M_A    0.0000
   6679 H         176.3131    1.7409    4.3569 H       603      M_A    0.0000
   6680 H         175.9856    3.0396    3.6171 H       603      M_A    0.0000
   6681 Si        179.7210    2.8852    5.4759 Si      604      M_A    0.0000
   6682 C         181.2008    2.2059    5.4457 C.3     604      M_A    0.0000
   6683 C         179.8108    4.3215    4.7137 C.3     604      M_A    0.0000
   6684 O         179.2236    3.0255    6.8260 O.3     604      M_A    0.0000
   6685 H         181.8272    2.7551    5.8870 H       604      M_A    0.0000
   6686 H         181.1886    1.3659    5.8736 H       604      M_A    0.0000
   6687 H         181.4918    2.0842    4.5570 H       604      M_A    0.0000
   6688 H         180.4244    4.8901    5.1483 H       604      M_A    0.0000
   6689 H         178.9684    4.7450    4.7045 H       604      M_A    0.0000
   6690 H         180.0972    4.2068    3.8226 H       604      M_A    0.0000
   6691 Si        178.5244    3.9902    7.0707 Si      605      M_A    0.0000
   6692 C         179.2984    5.3075    6.5072 C.3     605      M_A    0.0000
   6693 C         177.1436    3.8174    6.2250 C.3     605      M_A    0.0000
   6694 O         178.2742    4.0829    8.4916 O.3     605      M_A    0.0000
   6695 H         178.7661    6.0778    6.6175 H       605      M_A    0.0000
   6696 H         180.1096    5.4384    6.9694 H       605      M_A    0.0000
   6697 H         179.4899    5.2122    5.5888 H       605      M_A    0.0000
   6698 H         176.5914    4.5739    6.3327 H       605      M_A    0.0000
   6699 H         176.6679    3.0582    6.5187 H       605      M_A    0.0000
   6700 H         177.3279    3.7170    5.3057 H       605      M_A    0.0000
   6701 Si        177.8661    5.1444    8.9230 Si      606      M_A    0.0000
   6702 C         178.8628    6.3088    8.3727 C.3     606      M_A    0.0000
   6703 C         176.3922    5.3973    8.2783 C.3     606      M_A    0.0000
   6704 O         177.8212    5.1166   10.3677 O.3     606      M_A    0.0000
   6705 H         178.5516    7.1608    8.6296 H       606      M_A    0.0000
   6706 H         179.7317    6.1927    8.7200 H       606      M_A    0.0000
   6707 H         178.9120    6.2858    7.4313 H       606      M_A    0.0000
   6708 H         176.0583    6.2410    8.5343 H       606      M_A    0.0000
   6709 H         175.7855    4.7369    8.5692 H       606      M_A    0.0000
   6710 H         176.4332    5.3712    7.3366 H       606      M_A    0.0000
   6711 Si        177.2827    6.0498   10.9320 Si      607      M_A    0.0000
   6712 C         177.9230    7.4194   10.3269 C.3     607      M_A    0.0000
   6713 C         175.7040    6.0135   10.5341 C.3     607      M_A    0.0000
   6714 O         177.4771    5.9535   12.3613 O.3     607      M_A    0.0000
   6715 H         177.4921    8.1756   10.6893 H       607      M_A    0.0000
   6716 H         178.8417    7.4743   10.5317 H       607      M_A    0.0000
   6717 H         177.8238    7.4461    9.3896 H       607      M_A    0.0000
   6718 H         175.2527    6.7568   10.8984 H       607      M_A    0.0000
   6719 H         175.2973    5.2288   10.8626 H       607      M_A    0.0000
   6720 H         175.5974    6.0355    9.5975 H       607      M_A    0.0000
   6721 Si        177.1067    6.8896   13.0439 Si      608      M_A    0.0000
   6722 C         177.9078    8.2119   12.5324 C.3     608      M_A    0.0000
   6723 C         175.5219    7.1136   12.7437 C.3     608      M_A    0.0000
   6724 O         177.3541    6.6212   14.4428 O.3     608      M_A    0.0000
   6725 H         177.6085    8.9793   12.9908 H       608      M_A    0.0000
   6726 H         178.8336    8.1176   12.6837 H       608      M_A    0.0000
   6727 H         177.7683    8.3480   11.6098 H       608      M_A    0.0000
   6728 H         175.2006    7.8709   13.2041 H       608      M_A    0.0000
   6729 H         175.0227    6.3633   13.0212 H       608      M_A    0.0000
   6730 H         175.3744    7.2460   11.8218 H       608      M_A    0.0000
   6731 Si        176.7967    7.3302   15.2589 Si      609      M_A    0.0000
   6732 C         176.8107    8.8498   14.6735 C.3     609      M_A    0.0000
   6733 C         175.2464    6.8404   15.3509 C.3     609      M_A    0.0000
   6734 O         177.4627    7.2434   16.5391 O.3     609      M_A    0.0000
   6735 H         176.3332    9.4295   15.2434 H       609      M_A    0.0000
   6736 H         177.6950    9.1681   14.5990 H       609      M_A    0.0000
   6737 H         176.4094    8.8804   13.8207 H       609      M_A    0.0000
   6738 H         174.7546    7.4016   15.9270 H       609      M_A    0.0000
   6739 H         175.1965    5.9586   15.6810 H       609      M_A    0.0000
   6740 H         174.8399    6.8643   14.5004 H       609      M_A    0.0000
   6741 Si        177.0678    7.9719   17.4294 Si      610      M_A    0.0000
   6742 C         177.5089    9.4919   17.0460 C.3     610      M_A    0.0000
   6743 C         175.4407    7.9044   17.4277 C.3     610      M_A    0.0000
   6744 O         177.6197    7.5584   18.7000 O.3     610      M_A    0.0000
   6745 H         177.1702   10.1050   17.6770 H       610      M_A    0.0000
   6746 H         178.4484    9.5703   17.0302 H       610      M_A    0.0000
   6747 H         177.1750    9.7300   16.1969 H       610      M_A    0.0000
   6748 H         175.0830    8.5028   18.0623 H       610      M_A    0.0000
   6749 H         175.1449    7.0346   17.6399 H       610      M_A    0.0000
   6750 H         175.0999    8.1372   16.5799 H       610      M_A    0.0000
   6751 Si        177.2202    8.1263   19.6986 Si      611      M_A    0.0000
   6752 C         175.8786    8.9516   19.2851 C.3     611      M_A    0.0000
   6753 C         176.7944    6.9793   20.7733 C.3     611      M_A    0.0000
   6754 O         178.2452    8.9995   20.2250 O.3     611      M_A    0.0000
   6755 H         175.4938    9.3606   20.0425 H       611      M_A    0.0000
   6756 H         176.0835    9.6238   18.6565 H       611      M_A    0.0000
   6757 H         175.2372    8.3736   18.9060 H       611      M_A    0.0000
   6758 H         176.4181    7.3701   21.5443 H       611      M_A    0.0000
   6759 H         177.5464    6.4734   21.0334 H       611      M_A    0.0000
   6760 H         176.1561    6.3947   20.3991 H       611      M_A    0.0000
   6761 Si        177.9150    9.8088   21.0708 Si      612      M_A    0.0000
   6762 C         176.4816    9.3253   21.6737 C.3     612      M_A    0.0000
   6763 C         179.0153    9.7366   22.2692 C.3     612      M_A    0.0000
   6764 O         177.8351   11.1330   20.4961 O.3     612      M_A    0.0000
   6765 H         176.2116    9.8884   22.3800 H       612      M_A    0.0000
   6766 H         175.8167    9.3471   21.0056 H       612      M_A    0.0000
   6767 H         176.5417    8.4451   22.0066 H       612      M_A    0.0000
   6768 H         178.7686   10.3034   22.9809 H       612      M_A    0.0000
   6769 H         179.8637   10.0041   21.9567 H       612      M_A    0.0000
   6770 H         179.0839    8.8578   22.6041 H       612      M_A    0.0000
   6771 Si        176.7514   11.6851   20.5035 Si      613      M_A    0.0000
   6772 C         176.7834   12.8352   19.3510 C.3     613      M_A    0.0000
   6773 C         175.6375   10.5762   20.0773 C.3     613      M_A    0.0000
   6774 O         176.4796   12.2428   21.8093 O.3     613      M_A    0.0000
   6775 H         175.9412   13.2519   19.2745 H       613      M_A    0.0000
   6776 H         177.4237   13.4952   19.5593 H       613      M_A    0.0000
   6777 H         177.0025   12.4601   18.5141 H       613      M_A    0.0000
   6778 H         174.7848   10.9722   20.0074 H       613      M_A    0.0000
   6779 H         175.5933    9.8871   20.7192 H       613      M_A    0.0000
   6780 H         175.8527   10.1936   19.2427 H       613      M_A    0.0000
   6781 Si        176.9604   11.6782   22.7734 Si      614      M_A    0.0000
   6782 C         175.7793   11.5193   23.8832 C.3     614      M_A    0.0000
   6783 C         177.4037   10.1868   22.2929 C.3     614      M_A    0.0000
   6784 O         178.0822   12.4303   23.2891 O.3     614      M_A    0.0000
   6785 H         176.0872   11.0299   24.6279 H       614      M_A    0.0000
   6786 H         175.4900   12.3652   24.1827 H       614      M_A    0.0000
   6787 H         175.0397   11.0629   23.5175 H       614      M_A    0.0000
   6788 H         177.7265    9.6851   23.0229 H       614      M_A    0.0000
   6789 H         178.0845   10.2368   21.6425 H       614      M_A    0.0000
   6790 H         176.6694    9.7259   21.9218 H       614      M_A    0.0000
   6791 Si        179.0770   11.8082   23.6098 Si      615      M_A    0.0000
   6792 C         179.1631   10.4980   22.6465 C.3     615      M_A    0.0000
   6793 C         180.3650   12.7525   23.2916 C.3     615      M_A    0.0000
   6794 O         179.0131   11.4425   25.0070 O.3     615      M_A    0.0000
   6795 H         179.9544   10.0139   22.8146 H       615      M_A    0.0000
   6796 H         178.4280    9.9272   22.7970 H       615      M_A    0.0000
   6797 H         179.1623   10.7531   21.7387 H       615      M_A    0.0000
   6798 H         181.1674   12.2891   23.4656 H       615      M_A    0.0000
   6799 H         180.3477   13.5282   23.8274 H       615      M_A    0.0000
   6800 H         180.3682   13.0151   22.3860 H       615      M_A    0.0000
   6801 Si        178.7780   12.3256   25.8096 Si      616      M_A    0.0000
   6802 C         179.9112   13.4781   25.6109 C.3     616      M_A    0.0000
   6803 C         177.3334   12.9672   25.4178 C.3     616      M_A    0.0000
   6804 O         178.7820   11.7968   27.1551 O.2     616      M_A    0.0000
   6805 H         179.7354   14.2164   26.1702 H       616      M_A    0.0000
   6806 H         180.7663   13.1420   25.8226 H       616      M_A    0.0000
   6807 H         179.9223   13.7820   24.7184 H       616      M_A    0.0000
   6808 H         177.1339   13.7008   25.9753 H       616      M_A    0.0000
   6809 H         176.6489   12.3260   25.5142 H       616      M_A    0.0000
   6810 H         177.3359   13.2694   24.5246 H       616      M_A    0.0000
   6811 Si        185.6730    1.6286    0.2150 Si      617      M_A    0.0000
   6812 C         186.4544    3.3007   -0.1910 C.3     617      M_A    0.0000
   6813 C         183.8696    1.9274    0.6942 C.3     617      M_A    0.0000
   6814 O         186.5133    0.8275    1.4260 O.3     617      M_A    0.0000
   6815 H         186.4154    3.9651    0.6773 H       617      M_A    0.0000
   6816 H         187.5015    3.1752   -0.4824 H       617      M_A    0.0000
   6817 H         185.9210    3.7850   -1.0146 H       617      M_A    0.0000
   6818 H         183.8068    2.5792    1.5706 H       617      M_A    0.0000
   6819 H         183.3730    0.9818    0.9315 H       617      M_A    0.0000
   6820 H         183.3276    2.4071   -0.1265 H       617      M_A    0.0000
   6821 Si        187.7951    0.3277    1.1106 Si      618      M_A    0.0000
   6822 C         187.9987    0.4389   -0.7649 C.3     618      M_A    0.0000
   6823 C         189.0627    1.4822    1.9053 C.3     618      M_A    0.0000
   6824 O         187.9589   -1.2486    1.6611 O.3     618      M_A    0.0000
   6825 H         189.0056    0.1311   -1.0620 H       618      M_A    0.0000
   6826 H         187.2768   -0.2104   -1.2693 H       618      M_A    0.0000
   6827 H         187.8409    1.4656   -1.1090 H       618      M_A    0.0000
   6828 H         190.0794    1.1839    1.6328 H       618      M_A    0.0000
   6829 H         188.9763    1.4559    2.9957 H       618      M_A    0.0000
   6830 H         188.9085    2.5123    1.5701 H       618      M_A    0.0000
   6831 Si        187.8591   -1.4689    2.9572 Si      619      M_A    0.0000
   6832 C         189.1971   -0.6247    3.7402 C.3     619      M_A    0.0000
   6833 C         186.3525   -0.7289    3.5035 C.3     619      M_A    0.0000
   6834 O         187.8909   -3.0075    3.2529 O.3     619      M_A    0.0000
   6835 H         189.1287   -0.7067    4.7566 H       619      M_A    0.0000
   6836 H         190.0926   -1.0188    3.4449 H       619      M_A    0.0000
   6837 H         189.1855    0.3687    3.4997 H       619      M_A    0.0000
   6838 H         186.2580   -0.8119    4.5177 H       619      M_A    0.0000
   6839 H         185.5491   -1.1853    3.0668 H       619      M_A    0.0000
   6840 H         186.3314    0.2641    3.2622 H       619      M_A    0.0000
   6841 Si        187.3431   -3.4239    4.3775 Si      620      M_A    0.0000
   6842 C         185.6127   -3.0900    4.2765 C.3     620      M_A    0.0000
   6843 C         187.5576   -5.1744    4.4522 C.3     620      M_A    0.0000
   6844 O         188.0023   -2.7053    5.6042 O.3     620      M_A    0.0000
   6845 H         185.1271   -3.4558    5.0979 H       620      M_A    0.0000
   6846 H         185.4435   -2.0834    4.2242 H       620      M_A    0.0000
   6847 H         185.2095   -3.5296    3.4465 H       620      M_A    0.0000
   6848 H         187.0900   -5.5594    5.2753 H       620      M_A    0.0000
   6849 H         188.5501   -5.4127    4.5048 H       620      M_A    0.0000
   6850 H         187.1609   -5.6210    3.6228 H       620      M_A    0.0000
   6851 Si        187.2487   -1.8823    6.3063 Si      621      M_A    0.0000
   6852 C         186.9976   -0.4337    5.3294 C.3     621      M_A    0.0000
   6853 C         185.6831   -2.6652    6.5338 C.3     621      M_A    0.0000
   6854 O         187.9349   -1.5479    7.6749 O.3     621      M_A    0.0000
   6855 H         186.3614    0.2123    5.8008 H       621      M_A    0.0000
   6856 H         187.8841    0.0483    5.1673 H       621      M_A    0.0000
   6857 H         186.5909   -0.6768    4.4238 H       621      M_A    0.0000
   6858 H         185.0347   -2.0398    7.0162 H       621      M_A    0.0000
   6859 H         185.7844   -3.5160    7.0910 H       621      M_A    0.0000
   6860 H         185.2719   -2.9158    5.6322 H       621      M_A    0.0000
   6861 Si        187.8695   -0.3021    8.1017 Si      622      M_A    0.0000
   6862 C         187.5354    0.7185    6.7007 C.3     622      M_A    0.0000
   6863 C         186.4907   -0.1919    9.1984 C.3     622      M_A    0.0000
   6864 O         189.2079    0.1030    8.8091 O.3     622      M_A    0.0000
   6865 H         187.4071    1.6911    6.9866 H       622      M_A    0.0000
   6866 H         188.3091    0.6781    6.0342 H       622      M_A    0.0000
   6867 H         186.6835    0.4111    6.2269 H       622      M_A    0.0000
   6868 H         186.3528    0.7724    9.5072 H       622      M_A    0.0000
   6869 H         186.6405   -0.7761   10.0236 H       622      M_A    0.0000
   6870 H         185.6353   -0.5024    8.7329 H       622      M_A    0.0000
   6871 Si        189.7444    1.2619    8.4816 Si      623      M_A    0.0000
   6872 C         191.4976    1.0590    8.5122 C.3     623      M_A    0.0000
   6873 C         189.2647    1.6143    6.8197 C.3     623      M_A    0.0000
   6874 O         189.2721    2.3809    9.4718 O.3     623      M_A    0.0000
   6875 H         191.9641    1.9125    8.1989 H       623      M_A    0.0000
   6876 H         191.8181    0.8457    9.4589 H       623      M_A    0.0000
   6877 H         191.7821    0.2959    7.8945 H       623      M_A    0.0000
   6878 H         189.7107    2.4729    6.4909 H       623      M_A    0.0000
   6879 H         188.2516    1.7327    6.7556 H       623      M_A    0.0000
   6880 H         189.5417    0.8530    6.1964 H       623      M_A    0.0000
   6881 Si        189.7272    3.6024    9.2738 Si      624      M_A    0.0000
   6882 C         191.4069    3.6337    9.8158 C.3     624      M_A    0.0000
   6883 C         189.7098    3.8960    7.5333 C.3     624      M_A    0.0000
   6884 O         188.8481    4.6440   10.0471 O.3     624      M_A    0.0000
   6885 H         191.8306    4.5432    9.6216 H       624      M_A    0.0000
   6886 H         191.4632    3.4603   10.8214 H       624      M_A    0.0000
   6887 H         191.9540    2.9182    9.3327 H       624      M_A    0.0000
   6888 H         190.1180    4.8079    7.3182 H       624      M_A    0.0000
   6889 H         188.7525    3.8793    7.1757 H       624      M_A    0.0000
   6890 H         190.2512    3.1813    7.0426 H       624      M_A    0.0000
   6891 Si        188.6616    5.8218    9.4848 Si      625      M_A    0.0000
   6892 C         190.2370    6.4006    8.9380 C.3     625      M_A    0.0000
   6893 C         187.6479    5.5721    8.0614 C.3     625      M_A    0.0000
   6894 O         187.9999    6.8133   10.5021 O.3     625      M_A    0.0000
   6895 H         190.1404    7.2832    8.4322 H       625      M_A    0.0000
   6896 H         190.8601    6.5521    9.7338 H       625      M_A    0.0000
   6897 H         190.6722    5.7206    8.3111 H       625      M_A    0.0000
   6898 H         187.5274    6.4471    7.5475 H       625      M_A    0.0000
   6899 H         186.7246    5.2288    8.3337 H       625      M_A    0.0000
   6900 H         188.0743    4.8893    7.4315 H       625      M_A    0.0000
   6901 Si        188.4108    6.7670   11.7540 Si      626      M_A    0.0000
   6902 C         187.7528    5.2943   12.4710 C.3     626      M_A    0.0000
   6903 C         190.1698    6.6219   11.7268 C.3     626      M_A    0.0000
   6904 O         187.9458    8.0476   12.5283 O.3     626      M_A    0.0000
   6905 H         188.0973    5.1737   13.4255 H       626      M_A    0.0000
   6906 H         186.7319    5.3338   12.4997 H       626      M_A    0.0000
   6907 H         188.0298    4.4746   11.9268 H       626      M_A    0.0000
   6908 H         190.5366    6.5135   12.6745 H       626      M_A    0.0000
   6909 H         190.5926    7.4543   11.3111 H       626      M_A    0.0000
   6910 H         190.4550    5.8066   11.1802 H       626      M_A    0.0000
   6911 Si        188.7891    8.5780   13.3919 Si      627      M_A    0.0000
   6912 C         189.8748    7.2929   13.9264 C.3     627      M_A    0.0000
   6913 C         189.7495    9.7773   12.5226 C.3     627      M_A    0.0000
   6914 O         188.0106    9.2171   14.5924 O.3     627      M_A    0.0000
   6915 H         190.5947    7.6656   14.5485 H       627      M_A    0.0000
   6916 H         189.3560    6.5708   14.4304 H       627      M_A    0.0000
   6917 H         190.3394    6.8587   13.1262 H       627      M_A    0.0000
   6918 H         190.4683   10.1729   13.1318 H       627      M_A    0.0000
   6919 H         189.1558   10.5390   12.1882 H       627      M_A    0.0000
   6920 H         190.2137    9.3514   11.7177 H       627      M_A    0.0000
   6921 Si        188.7195    9.8109   15.5321 Si      628      M_A    0.0000
   6922 C         189.8289    8.6085   16.1950 C.3     628      M_A    0.0000
   6923 C         189.6809   11.0690   14.7520 C.3     628      M_A    0.0000
   6924 O         187.7763   10.4013   16.6356 O.3     628      M_A    0.0000
   6925 H         190.4517    9.0348   16.8840 H       628      M_A    0.0000
   6926 H         189.3110    7.8550   16.6518 H       628      M_A    0.0000
   6927 H         190.4043    8.2029   15.4540 H       628      M_A    0.0000
   6928 H         190.3024   11.5179   15.4277 H       628      M_A    0.0000
   6929 H         189.0746   11.7851   14.3468 H       628      M_A    0.0000
   6930 H         190.2558   10.6717   14.0061 H       628      M_A    0.0000
   6931 Si        188.3296   10.7862   17.7688 Si      629      M_A    0.0000
   6932 C         187.9350    9.5719   18.9876 C.3     629      M_A    0.0000
   6933 C         190.0789   10.7739   17.5325 C.3     629      M_A    0.0000
   6934 O         187.8086   12.2072   18.1751 O.3     629      M_A    0.0000
   6935 H         188.3977    9.7871   19.8730 H       629      M_A    0.0000
   6936 H         186.9265    9.5409   19.1505 H       629      M_A    0.0000
   6937 H         188.2426    8.6454   18.6849 H       629      M_A    0.0000
   6938 H         190.5613   11.0002   18.4045 H       629      M_A    0.0000
   6939 H         190.3509   11.4608   16.8264 H       629      M_A    0.0000
   6940 H         190.3937    9.8514   17.2249 H       629      M_A    0.0000
   6941 Si        188.1712   12.6761   19.3527 Si      630      M_A    0.0000
   6942 C         186.7000   13.1340   20.2140 C.3     630      M_A    0.0000
   6943 C         188.9310   11.3506   20.2370 C.3     630      M_A    0.0000
   6944 O         189.1448   13.8918   19.1796 O.3     630      M_A    0.0000
   6945 H         186.9198   13.4424   21.1631 H       630      M_A    0.0000
   6946 H         186.2231   13.8973   19.7297 H       630      M_A    0.0000
   6947 H         186.0589   12.3405   20.2777 H       630      M_A    0.0000
   6948 H         189.1714   11.6426   21.1863 H       630      M_A    0.0000
   6949 H         189.7866   11.0488   19.7665 H       630      M_A    0.0000
   6950 H         188.2974   10.5511   20.3008 H       630      M_A    0.0000
   6951 Si        189.2282   14.7529   20.1745 Si      631      M_A    0.0000
   6952 C         188.5159   16.2699   19.6201 C.3     631      M_A    0.0000
   6953 C         188.2329   14.1327   21.4938 C.3     631      M_A    0.0000
   6954 O         190.7217   14.9383   20.6115 O.3     631      M_A    0.0000
   6955 H         188.4933   16.9550   20.3781 H       631      M_A    0.0000
   6956 H         189.0598   16.6613   18.8484 H       631      M_A    0.0000
   6957 H         187.5576   16.1205   19.2977 H       631      M_A    0.0000
   6958 H         188.2077   14.7980   22.2690 H       631      M_A    0.0000
   6959 H         188.6078   13.2476   21.8411 H       631      M_A    0.0000
   6960 H         187.2736   13.9761   21.1776 H       631      M_A    0.0000
   6961 Si        190.9921   14.8770   21.9005 Si      632      M_A    0.0000
   6962 C         192.3357   15.9791   22.2105 C.3     632      M_A    0.0000
   6963 C         189.5780   15.4836   22.7655 C.3     632      M_A    0.0000
   6964 O         191.3398   13.4064   22.3154 O.3     632      M_A    0.0000
   6965 H         192.5429   16.0215   23.2103 H       632      M_A    0.0000
   6966 H         193.1765   15.6673   21.7203 H       632      M_A    0.0000
   6967 H         192.1070   16.9232   21.8926 H       632      M_A    0.0000
   6968 H         189.7598   15.5215   23.7704 H       632      M_A    0.0000
   6969 H         188.7717   14.8759   22.6068 H       632      M_A    0.0000
   6970 H         189.3401   16.4261   22.4495 H       632      M_A    0.0000
   6971 Si        190.3631   12.6601   22.7922 Si      633      M_A    0.0000
   6972 C         188.8460   13.4950   22.4498 C.3     633      M_A    0.0000
   6973 C         190.3680   11.1442   21.8877 C.3     633      M_A    0.0000
   6974 O         190.5600   12.4202   24.3283 O.3     633      M_A    0.0000
   6975 H         188.0485   12.9253   22.7394 H       633      M_A    0.0000
   6976 H         188.8048   14.3850   22.9505 H       633      M_A    0.0000
   6977 H         188.7565   13.6821   21.4489 H       633      M_A    0.0000
   6978 H         189.5845   10.5530   22.1722 H       633      M_A    0.0000
   6979 H         191.2358   10.6302   22.0527 H       633      M_A    0.0000
   6980 H         190.2836   11.3235   20.8850 H       633      M_A    0.0000
   6981 Si        189.7377   11.5797   24.9246 Si      634      M_A    0.0000
   6982 C         189.0159   10.5686   23.6705 C.3     634      M_A    0.0000
   6983 C         190.7108   10.5418   25.9695 C.3     634      M_A    0.0000
   6984 O         188.6499   12.3637   25.7357 O.3     634      M_A    0.0000
   6985 H         188.4186    9.8513   24.0863 H       634      M_A    0.0000
   6986 H         188.4472   11.1337   23.0367 H       634      M_A    0.0000
   6987 H         189.7419   10.1006   23.1240 H       634      M_A    0.0000
   6988 H         190.1290    9.8241   26.4063 H       634      M_A    0.0000
   6989 H         191.1543   11.0908   26.7087 H       634      M_A    0.0000
   6990 H         191.4424   10.0737   25.4306 H       634      M_A    0.0000
   6991 Si        188.2776   13.5420   25.2760 Si      635      M_A    0.0000
   6992 C         189.4895   14.7168   25.7929 C.3     635      M_A    0.0000
   6993 C         188.3171   13.4569   23.5133 C.3     635      M_A    0.0000
   6994 O         186.8498   13.9086   25.8077 O.3     635      M_A    0.0000
   6995 H         189.2846   15.6396   25.4047 H       635      M_A    0.0000
   6996 H         189.5049   14.7922   26.8120 H       635      M_A    0.0000
   6997 H         190.4198   14.4373   25.4749 H       635      M_A    0.0000
   6998 H         188.1014   14.3681   23.1041 H       635      M_A    0.0000
   6999 H         187.6323   12.7799   23.1709 H       635      M_A    0.0000
   7000 H         189.2436   13.1732   23.1877 H       635      M_A    0.0000
   7001 Si        186.0229   14.5061   24.9726 Si      636      M_A    0.0000
   7002 C         186.1926   13.7135   23.4046 C.3     636      M_A    0.0000
   7003 C         184.3825   14.2154   25.5563 C.3     636      M_A    0.0000
   7004 O         186.3459   16.0372   24.8872 O.2     636      M_A    0.0000
   7005 H         185.5222   14.0948   22.7342 H       636      M_A    0.0000
   7006 H         187.1343   13.8516   23.0323 H       636      M_A    0.0000
   7007 H         186.0220   12.7093   23.4889 H       636      M_A    0.0000
   7008 H         183.6954   14.6014   24.9057 H       636      M_A    0.0000
   7009 H         184.2431   14.6534   26.4692 H       636      M_A    0.0000
   7010 H         184.2058   13.2129   25.6479 H       636      M_A    0.0000
   7011 Si        187.1558    5.3424   -0.7628 Si      637      M_A    0.0000
   7012 C         188.5968    6.1100   -1.7145 C.3     637      M_A    0.0000
   7013 C         185.5502    6.0581   -1.4565 C.3     637      M_A    0.0000
   7014 O         187.2911    5.6055    0.8885 O.3     637      M_A    0.0000
   7015 H         188.6026    7.1973   -1.5935 H       637      M_A    0.0000
   7016 H         189.5508    5.7175   -1.3501 H       637      M_A    0.0000
   7017 H         188.5153    5.8865   -2.7825 H       637      M_A    0.0000
   7018 H         185.5281    7.1449   -1.3332 H       637      M_A    0.0000
   7019 H         184.6848    5.6345   -0.9381 H       637      M_A    0.0000
   7020 H         185.4586    5.8344   -2.5237 H       637      M_A    0.0000
   7021 Si        187.4338    4.4743    1.7205 Si      638      M_A    0.0000
   7022 C         189.2849    4.1517    1.9224 C.3     638      M_A    0.0000
   7023 C         186.7315    4.9276    3.4153 C.3     638      M_A    0.0000
   7024 O         186.6422    3.1546    1.0524 O.3     638      M_A    0.0000
   7025 H         189.4582    3.3263    2.6192 H       638      M_A    0.0000
   7026 H         189.7371    3.8918    0.9606 H       638      M_A    0.0000
   7027 H         189.7899    5.0399    2.3142 H       638      M_A    0.0000
   7028 H         186.8813    4.1092    4.1258 H       638      M_A    0.0000
   7029 H         185.6587    5.1310    3.3451 H       638      M_A    0.0000
   7030 H         187.2280    5.8183    3.8120 H       638      M_A    0.0000
   7031 Si        186.9614    2.8064   -0.2777 Si      639      M_A    0.0000
   7032 C         186.1962    4.1170   -1.4037 C.3     639      M_A    0.0000
   7033 C         188.8401    2.9102   -0.4532 C.3     639      M_A    0.0000
   7034 O         186.3879    1.2703   -0.6328 O.3     639      M_A    0.0000
   7035 H         186.4732    3.9380   -2.4468 H       639      M_A    0.0000
   7036 H         185.1048    4.0986   -1.3288 H       639      M_A    0.0000
   7037 H         186.5459    5.1157   -1.1250 H       639      M_A    0.0000
   7038 H         189.1414    2.7200   -1.4876 H       639      M_A    0.0000
   7039 H         189.3279    2.1710    0.1894 H       639      M_A    0.0000
   7040 H         189.1987    3.9048   -0.1713 H       639      M_A    0.0000
   7041 Si        185.1489    0.8904   -0.0736 Si      640      M_A    0.0000
   7042 C         184.7364   -0.6589   -0.8618 C.3     640      M_A    0.0000
   7043 C         185.4738    0.5627    1.6523 C.3     640      M_A    0.0000
   7044 O         184.0011    1.9689   -0.2609 O.3     640      M_A    0.0000
   7045 H         183.8951   -1.0756   -0.4279 H       640      M_A    0.0000
   7046 H         184.5468   -0.5154   -1.8685 H       640      M_A    0.0000
   7047 H         185.5149   -1.3336   -0.7679 H       640      M_A    0.0000
   7048 H         184.6393    0.1572    2.1093 H       640      M_A    0.0000
   7049 H         185.7247    1.4357    2.1472 H       640      M_A    0.0000
   7050 H         186.2548   -0.1079    1.7546 H       640      M_A    0.0000
   7051 Si        184.3656    3.2496   -0.3474 Si      641      M_A    0.0000
   7052 C         186.1389    3.2866   -0.5611 C.3     641      M_A    0.0000
   7053 C         183.6172    3.9190   -1.8251 C.3     641      M_A    0.0000
   7054 O         183.9135    4.0410    0.9505 O.3     641      M_A    0.0000
   7055 H         186.4684    4.2567   -0.7028 H       641      M_A    0.0000
   7056 H         186.6138    2.8997    0.2724 H       641      M_A    0.0000
   7057 H         186.4179    2.7281   -1.3860 H       641      M_A    0.0000
   7058 H         183.9235    4.8949   -1.9784 H       641      M_A    0.0000
   7059 H         182.5858    3.9096   -1.7465 H       641      M_A    0.0000
   7060 H         183.8876    3.3625   -2.6542 H       641      M_A    0.0000
   7061 Si        183.8065    5.3679    0.8584 Si      642      M_A    0.0000
   7062 C         183.1615    5.9607    2.4155 C.3     642      M_A    0.0000
   7063 C         185.4561    6.0239    0.6583 C.3     642      M_A    0.0000
   7064 O         182.8657    5.7629   -0.3558 O.3     642      M_A    0.0000
   7065 H         183.1226    6.9942    2.4237 H       642      M_A    0.0000
   7066 H         182.2064    5.5973    2.5754 H       642      M_A    0.0000
   7067 H         183.7639    5.6550    3.1990 H       642      M_A    0.0000
   7068 H         185.4382    7.0580    0.6503 H       642      M_A    0.0000
   7069 H         185.8714    5.6983   -0.2313 H       642      M_A    0.0000
   7070 H         186.0661    5.7184    1.4359 H       642      M_A    0.0000
   7071 Si        182.6194    7.0600   -0.5494 Si      643      M_A    0.0000
   7072 C         181.6620    7.2032   -2.0509 C.3     643      M_A    0.0000
   7073 C         181.6029    7.6189    0.8093 C.3     643      M_A    0.0000
   7074 O         183.9785    7.8725   -0.6394 O.3     643      M_A    0.0000
   7075 H         181.3837    8.1861   -2.2129 H       643      M_A    0.0000
   7076 H         182.2128    6.8820   -2.8654 H       643      M_A    0.0000
   7077 H         180.8024    6.6310   -1.9904 H       643      M_A    0.0000
   7078 H         181.3240    8.6056    0.6735 H       643      M_A    0.0000
   7079 H         182.1183    7.5459    1.7031 H       643      M_A    0.0000
   7080 H         180.7430    7.0480    0.8793 H       643      M_A    0.0000
   7081 Si        183.9410    9.1730   -0.3432 Si      644      M_A    0.0000
   7082 C         183.5550   10.0526   -1.8496 C.3     644      M_A    0.0000
   7083 C         182.5926    9.4210    0.8021 C.3     644      M_A    0.0000
   7084 O         185.3269    9.6395    0.2709 O.3     644      M_A    0.0000
   7085 H         183.4456   11.0639   -1.6629 H       644      M_A    0.0000
   7086 H         184.3098    9.9295   -2.5461 H       644      M_A    0.0000
   7087 H         182.6714    9.7033   -2.2587 H       644      M_A    0.0000
   7088 H         182.4743   10.4266    1.0132 H       644      M_A    0.0000
   7089 H         182.7725    8.9207    1.6894 H       644      M_A    0.0000
   7090 H         181.7058    9.0696    0.4019 H       644      M_A    0.0000
   7091 Si        185.6174   10.9409    0.2210 Si      645      M_A    0.0000
   7092 C         186.6910   11.1947   -1.1843 C.3     645      M_A    0.0000
   7093 C         184.0909   11.8173   -0.0847 C.3     645      M_A    0.0000
   7094 O         186.3012   11.4061    1.5743 O.3     645      M_A    0.0000
   7095 H         186.8931   12.2011   -1.3111 H       645      M_A    0.0000
   7096 H         187.5876   10.6963   -1.0516 H       645      M_A    0.0000
   7097 H         186.2463   10.8440   -2.0500 H       645      M_A    0.0000
   7098 H         184.2692   12.8294   -0.2014 H       645      M_A    0.0000
   7099 H         183.4347   11.6908    0.7047 H       645      M_A    0.0000
   7100 H         183.6376   11.4687   -0.9468 H       645      M_A    0.0000
   7101 Si        186.7782   12.6511    1.6287 Si      646      M_A    0.0000
   7102 C         188.2996   12.5994    2.5638 C.3     646      M_A    0.0000
   7103 C         187.1734   13.1449   -0.0421 C.3     646      M_A    0.0000
   7104 O         185.7136   13.6217    2.2920 O.3     646      M_A    0.0000
   7105 H         188.7495   13.5306    2.5790 H       646      M_A    0.0000
   7106 H         188.1168   12.3098    3.5398 H       646      M_A    0.0000
   7107 H         188.9636   11.9279    2.1416 H       646      M_A    0.0000
   7108 H         187.6129   14.0811   -0.0509 H       646      M_A    0.0000
   7109 H         186.3180   13.1810   -0.6225 H       646      M_A    0.0000
   7110 H         187.8336   12.4751   -0.4730 H       646      M_A    0.0000
   7111 Si        185.8474   14.9303    2.0681 Si      647      M_A    0.0000
   7112 C         187.5871   15.2548    1.8233 C.3     647      M_A    0.0000
   7113 C         184.9965   15.3004    0.5414 C.3     647      M_A    0.0000
   7114 O         185.2601   15.7614    3.2845 O.3     647      M_A    0.0000
   7115 H         187.7412   16.2474    1.5771 H       647      M_A    0.0000
   7116 H         188.1206   15.0461    2.6846 H       647      M_A    0.0000
   7117 H         187.9618   14.6708    1.0562 H       647      M_A    0.0000
   7118 H         185.1268   16.2934    0.2834 H       647      M_A    0.0000
   7119 H         183.9826   15.1188    0.6370 H       647      M_A    0.0000
   7120 H         185.3625   14.7165   -0.2301 H       647      M_A    0.0000
   7121 Si        184.8596   17.0110    3.0423 Si      648      M_A    0.0000
   7122 C         184.0699   17.0172    1.4397 C.3     648      M_A    0.0000
   7123 C         183.6263   17.4232    4.2673 C.3     648      M_A    0.0000
   7124 O         186.0937   18.0059    3.0930 O.3     648      M_A    0.0000
   7125 H         183.6780   17.9512    1.2305 H       648      M_A    0.0000
   7126 H         184.7497   16.7755    0.6985 H       648      M_A    0.0000
   7127 H         183.2971   16.3301    1.4121 H       648      M_A    0.0000
   7128 H         183.2302   18.3610    4.0841 H       648      M_A    0.0000
   7129 H         184.0410   17.4241    5.2148 H       648      M_A    0.0000
   7130 H         182.8519   16.7375    4.2492 H       648      M_A    0.0000
   7131 Si        186.0176   19.1215    2.3649 Si      649      M_A    0.0000
   7132 C         187.5065   19.2203    1.3825 C.3     649      M_A    0.0000
   7133 C         184.6324   18.9389    1.2515 C.3     649      M_A    0.0000
   7134 O         185.8509   20.3858    3.3078 O.3     649      M_A    0.0000
   7135 H         187.4692   20.0344    0.7456 H       649      M_A    0.0000
   7136 H         188.3374   19.3200    1.9905 H       649      M_A    0.0000
   7137 H         187.6210   18.3673    0.8085 H       649      M_A    0.0000
   7138 H         184.5686   19.7503    0.6134 H       649      M_A    0.0000
   7139 H         183.7467   18.8705    1.7814 H       649      M_A    0.0000
   7140 H         184.7373   18.0850    0.6771 H       649      M_A    0.0000
   7141 Si        186.1960   21.5756    2.8119 Si      650      M_A    0.0000
   7142 C         187.8481   21.9355    3.3888 C.3     650      M_A    0.0000
   7143 C         186.2546   21.4160    1.0335 C.3     650      M_A    0.0000
   7144 O         185.1593   22.6857    3.2685 O.3     650      M_A    0.0000
   7145 H         188.1933   22.8191    2.9767 H       650      M_A    0.0000
   7146 H         187.8611   22.0293    4.4189 H       650      M_A    0.0000
   7147 H         188.5002   21.1787    3.1205 H       650      M_A    0.0000
   7148 H         186.5851   22.2948    0.5997 H       650      M_A    0.0000
   7149 H         185.3158   21.1995    0.6568 H       650      M_A    0.0000
   7150 H         186.9014   20.6574    0.7573 H       650      M_A    0.0000
   7151 Si        185.0759   23.7936    2.5296 Si      651      M_A    0.0000
   7152 C         186.4124   23.7470    1.3449 C.3     651      M_A    0.0000
   7153 C         183.5356   23.7192    1.6277 C.3     651      M_A    0.0000
   7154 O         185.1543   25.0804    3.4534 O.3     651      M_A    0.0000
   7155 H         186.3544   24.5524    0.6986 H       651      M_A    0.0000
   7156 H         187.3269   23.7811    1.8269 H       651      M_A    0.0000
   7157 H         186.3704   22.8796    0.7828 H       651      M_A    0.0000
   7158 H         183.4511   24.5243    0.9841 H       651      M_A    0.0000
   7159 H         182.7319   23.7366    2.2787 H       651      M_A    0.0000
   7160 H         183.4839   22.8516    1.0666 H       651      M_A    0.0000
   7161 Si        186.1978   25.1854    4.2784 Si      652      M_A    0.0000
   7162 C         185.5652   25.1343    5.9484 C.3     652      M_A    0.0000
   7163 C         187.2213   23.7422    4.0310 C.3     652      M_A    0.0000
   7164 O         186.9946   26.5267    3.9927 O.3     652      M_A    0.0000
   7165 H         186.3412   25.1432    6.6322 H       652      M_A    0.0000
   7166 H         184.9590   25.9518    6.1328 H       652      M_A    0.0000
   7167 H         185.0111   24.2743    6.1015 H       652      M_A    0.0000
   7168 H         188.0125   23.7383    4.6971 H       652      M_A    0.0000
   7169 H         187.6041   23.7283    3.0702 H       652      M_A    0.0000
   7170 H         186.6727   22.8775    4.1776 H       652      M_A    0.0000
   7171 Si        186.9864   26.9955    2.7434 Si      653      M_A    0.0000
   7172 C         187.4376   25.6455    1.6638 C.3     653      M_A    0.0000
   7173 C         185.3067   27.4698    2.3623 C.3     653      M_A    0.0000
   7174 O         187.9877   28.2177    2.6059 O.3     653      M_A    0.0000
   7175 H         187.3802   25.9368    0.6730 H       653      M_A    0.0000
   7176 H         188.4048   25.3336    1.8563 H       653      M_A    0.0000
   7177 H         186.8008   24.8417    1.8005 H       653      M_A    0.0000
   7178 H         185.2297   27.7779    1.3780 H       653      M_A    0.0000
   7179 H         185.0012   28.2475    2.9720 H       653      M_A    0.0000
   7180 H         184.6628   26.6722    2.5013 H       653      M_A    0.0000
   7181 Si        187.4773   29.4472    2.6973 Si      654      M_A    0.0000
   7182 C         187.6402   30.2136    1.0918 C.3     654      M_A    0.0000
   7183 C         185.7350   29.2768    3.0538 C.3     654      M_A    0.0000
   7184 O         188.2290   30.2746    3.8224 O.3     654      M_A    0.0000
   7185 H         187.1965   31.1479    1.0876 H       654      M_A    0.0000
   7186 H         188.6376   30.3253    0.8417 H       654      M_A    0.0000
   7187 H         187.1828   29.6368    0.3651 H       654      M_A    0.0000
   7188 H         185.2739   30.2024    3.0676 H       654      M_A    0.0000
   7189 H         185.5946   28.8289    3.9755 H       654      M_A    0.0000
   7190 H         185.2712   28.6967    2.3336 H       654      M_A    0.0000
   7191 Si        187.6396   30.3710    5.0156 Si      655      M_A    0.0000
   7192 C         188.3671   31.7678    5.8591 C.3     655      M_A    0.0000
   7193 C         185.9140   30.7354    4.7307 C.3     655      M_A    0.0000
   7194 O         187.8287   29.0262    5.8349 O.2     655      M_A    0.0000
   7195 H         187.8971   31.9307    6.7659 H       655      M_A    0.0000
   7196 H         189.3721   31.6012    6.0383 H       655      M_A    0.0000
   7197 H         188.2737   32.6260    5.2892 H       655      M_A    0.0000
   7198 H         185.4214   30.8888    5.6272 H       655      M_A    0.0000
   7199 H         185.4539   29.9522    4.2359 H       655      M_A    0.0000
   7200 H         185.8124   31.5902    4.1571 H       655      M_A    0.0000
   7201 Si        197.3007    2.7289   -0.9810 Si      656      M_A    0.0000
   7202 C         198.6938    3.6205   -1.8951 C.3     656      M_A    0.0000
   7203 C         195.6614    3.4986   -1.5208 C.3     656      M_A    0.0000
   7204 O         197.5032    2.8010    0.6828 O.3     656      M_A    0.0000
   7205 H         198.6954    4.6865   -1.6491 H       656      M_A    0.0000
   7206 H         199.6656    3.2012   -1.6181 H       656      M_A    0.0000
   7207 H         198.5693    3.5210   -2.9777 H       656      M_A    0.0000
   7208 H         195.6352    4.5635   -1.2713 H       656      M_A    0.0000
   7209 H         194.8221    3.0065   -1.0202 H       656      M_A    0.0000
   7210 H         195.5267    3.3987   -2.6021 H       656      M_A    0.0000
   7211 Si        198.0945    1.6876    1.3175 Si      657      M_A    0.0000
   7212 C         196.9738    0.1984    1.0048 C.3     657      M_A    0.0000
   7213 C         199.7487    1.3634    0.4634 C.3     657      M_A    0.0000
   7214 O         198.2893    1.9854    2.9570 O.3     657      M_A    0.0000
   7215 H         197.4207   -0.7125    1.4140 H       657      M_A    0.0000
   7216 H         195.9978    0.3457    1.4768 H       657      M_A    0.0000
   7217 H         196.8210    0.0503   -0.0685 H       657      M_A    0.0000
   7218 H         200.2211    0.4632    0.8676 H       657      M_A    0.0000
   7219 H         200.4300    2.2066    0.6121 H       657      M_A    0.0000
   7220 H         199.6052    1.2193   -0.6117 H       657      M_A    0.0000
   7221 Si        198.8168    0.9449    3.7515 Si      658      M_A    0.0000
   7222 C         200.0769    1.7171    4.9292 C.3     658      M_A    0.0000
   7223 C         197.3973    0.2508    4.7881 C.3     658      M_A    0.0000
   7224 O         199.5131   -0.2342    2.7823 O.3     658      M_A    0.0000
   7225 H         200.4676    0.9657    5.6219 H       658      M_A    0.0000
   7226 H         200.9168    2.1404    4.3702 H       658      M_A    0.0000
   7227 H         199.6149    2.5155    5.5178 H       658      M_A    0.0000
   7228 H         197.7633   -0.5140    5.4794 H       658      M_A    0.0000
   7229 H         196.6367   -0.2017    4.1447 H       658      M_A    0.0000
   7230 H         196.9263    1.0443    5.3762 H       658      M_A    0.0000
   7231 Si        200.3321   -1.1965    3.4112 Si      659      M_A    0.0000
   7232 C         199.1880   -2.4176    4.1631 C.3     659      M_A    0.0000
   7233 C         201.3957   -2.0824    2.2072 C.3     659      M_A    0.0000
   7234 O         201.2143   -0.4216    4.5397 O.3     659      M_A    0.0000
   7235 H         199.7316   -3.1784    4.6669 H       659      M_A    0.0000
   7236 H         198.5457   -1.9448    4.8646 H       659      M_A    0.0000
   7237 H         198.5895   -2.8783    3.4162 H       659      M_A    0.0000
   7238 H         201.9595   -2.8400    2.6930 H       659      M_A    0.0000
   7239 H         202.0719   -1.4093    1.7405 H       659      M_A    0.0000
   7240 H         200.8045   -2.5419    1.4537 H       659      M_A    0.0000
   7241 Si        202.2266   -1.1206    5.1431 Si      660      M_A    0.0000
   7242 C         201.4797   -2.6037    5.9229 C.3     660      M_A    0.0000
   7243 C         203.3650   -1.6876    3.8210 C.3     660      M_A    0.0000
   7244 O         202.9894   -0.1841    6.2355 O.3     660      M_A    0.0000
   7245 H         202.2318   -3.2218    6.3474 H       660      M_A    0.0000
   7246 H         200.8050   -2.3208    6.6929 H       660      M_A    0.0000
   7247 H         200.9481   -3.1765    5.2034 H       660      M_A    0.0000
   7248 H         204.1345   -2.2973    4.2262 H       660      M_A    0.0000
   7249 H         203.8163   -0.8576    3.3356 H       660      M_A    0.0000
   7250 H         202.8398   -2.2574    3.0945 H       660      M_A    0.0000
   7251 Si        202.4286    1.0308    6.5305 Si      661      M_A    0.0000
   7252 C         200.7691    1.0726    5.7497 C.3     661      M_A    0.0000
   7253 C         202.2015    1.1024    8.3495 C.3     661      M_A    0.0000
   7254 O         203.3790    2.2393    5.9931 O.3     661      M_A    0.0000
   7255 H         200.2580    1.9678    6.0054 H       661      M_A    0.0000
   7256 H         200.8529    1.0257    4.6919 H       661      M_A    0.0000
   7257 H         200.1811    0.2509    6.0774 H       661      M_A    0.0000
   7258 H         201.7035    1.9978    8.6292 H       661      M_A    0.0000
   7259 H         203.1408    1.0733    8.8445 H       661      M_A    0.0000
   7260 H         201.6183    0.2808    8.6859 H       661      M_A    0.0000
   7261 Si        202.7682    3.4070    5.6179 Si      662      M_A    0.0000
   7262 C         200.9608    3.1720    5.8272 C.3     662      M_A    0.0000
   7263 C         203.3101    4.7103    6.7897 C.3     662      M_A    0.0000
   7264 O         203.1540    3.7798    4.0802 O.3     662      M_A    0.0000
   7265 H         200.4398    4.0732    5.6167 H       662      M_A    0.0000
   7266 H         200.6038    2.4177    5.1701 H       662      M_A    0.0000
   7267 H         200.7344    2.8843    6.8243 H       662      M_A    0.0000
   7268 H         202.8106    5.6256    6.5881 H       662      M_A    0.0000
   7269 H         204.3562    4.8747    6.7075 H       662      M_A    0.0000
   7270 H         203.0916    4.4277    7.7901 H       662      M_A    0.0000
   7271 Si        202.9885    5.0806    3.6826 Si      663      M_A    0.0000
   7272 C         202.9550    6.1164    5.1964 C.3     663      M_A    0.0000
   7273 C         204.4703    5.5487    2.7078 C.3     663      M_A    0.0000
   7274 O         201.6201    5.2379    2.8136 O.3     663      M_A    0.0000
   7275 H         202.8988    7.1464    4.9436 H       663      M_A    0.0000
   7276 H         202.1134    5.8728    5.7969 H       663      M_A    0.0000
   7277 H         203.8345    5.9648    5.7725 H       663      M_A    0.0000
   7278 H         204.4281    6.5735    2.4321 H       663      M_A    0.0000
   7279 H         204.5338    4.9661    1.8220 H       663      M_A    0.0000
   7280 H         205.3549    5.3952    3.2756 H       663      M_A    0.0000
   7281 Si        201.3150    6.4837    2.3316 Si      664      M_A    0.0000
   7282 C         202.1504    7.7090    3.4116 C.3     664      M_A    0.0000
   7283 C         202.0446    6.6162    0.6536 C.3     664      M_A    0.0000
   7284 O         199.7013    6.7024    2.3069 O.3     664      M_A    0.0000
   7285 H         202.0053    8.6939    3.0416 H       664      M_A    0.0000
   7286 H         201.7624    7.6620    4.3992 H       664      M_A    0.0000
   7287 H         203.1951    7.5212    3.4512 H       664      M_A    0.0000
   7288 H         201.8985    7.5910    0.2583 H       664      M_A    0.0000
   7289 H         201.5934    5.9165   -0.0059 H       664      M_A    0.0000
   7290 H         203.0890    6.4247    0.6841 H       664      M_A    0.0000
   7291 Si        199.2249    7.9448    2.6336 Si      665      M_A    0.0000
   7292 C         198.0998    7.7407    4.0682 C.3     665      M_A    0.0000
   7293 C         200.6566    8.9559    3.1751 C.3     665      M_A    0.0000
   7294 O         198.4622    8.6126    1.3589 O.3     665      M_A    0.0000
   7295 H         197.7545    8.6851    4.4099 H       665      M_A    0.0000
   7296 H         197.2566    7.1528    3.8007 H       665      M_A    0.0000
   7297 H         198.6025    7.2618    4.8721 H       665      M_A    0.0000
   7298 H         200.3348    9.9115    3.5086 H       665      M_A    0.0000
   7299 H         201.3405    9.0938    2.3742 H       665      M_A    0.0000
   7300 H         201.1678    8.4811    3.9761 H       665      M_A    0.0000
   7301 Si        198.5222    9.9752    1.2270 Si      666      M_A    0.0000
   7302 C         200.2877   10.4599    1.3426 C.3     666      M_A    0.0000
   7303 C         197.9296   10.3892   -0.4591 C.3     666      M_A    0.0000
   7304 O         197.6220   10.6961    2.3769 O.3     666      M_A    0.0000
   7305 H         200.4008   11.5027    1.1762 H       666      M_A    0.0000
   7306 H         200.6757   10.2305    2.3044 H       666      M_A    0.0000
   7307 H         200.8652    9.9444    0.6152 H       666      M_A    0.0000
   7308 H         198.0211   11.4314   -0.6421 H       666      M_A    0.0000
   7309 H         196.9092   10.1176   -0.5733 H       666      M_A    0.0000
   7310 H         198.4992    9.8735   -1.1925 H       666      M_A    0.0000
   7311 Si        197.6339   12.0654    2.4254 Si      667      M_A    0.0000
   7312 C         198.2824   12.6653    0.8176 C.3     667      M_A    0.0000
   7313 C         195.8931   12.6236    2.5786 C.3     667      M_A    0.0000
   7314 O         198.5447   12.5805    3.6734 O.3     667      M_A    0.0000
   7315 H         198.2477   13.7258    0.7727 H       667      M_A    0.0000
   7316 H         199.2900   12.3574    0.6832 H       667      M_A    0.0000
   7317 H         197.7032   12.2811    0.0143 H       667      M_A    0.0000
   7318 H         195.8364   13.6837    2.5499 H       667      M_A    0.0000
   7319 H         195.4736   12.2908    3.4960 H       667      M_A    0.0000
   7320 H         195.3058   12.2393    1.7812 H       667      M_A    0.0000
   7321 Si        198.8676   13.9114    3.7156 Si      668      M_A    0.0000
   7322 C         200.6068   14.0357    4.2859 C.3     668      M_A    0.0000
   7323 C         198.7871   14.5498    1.9976 C.3     668      M_A    0.0000
   7324 O         197.8499   14.7106    4.7045 O.3     668      M_A    0.0000
   7325 H         200.9342   15.0459    4.2702 H       668      M_A    0.0000
   7326 H         200.7015   13.6686    5.2780 H       668      M_A    0.0000
   7327 H         201.2481   13.4704    3.6553 H       668      M_A    0.0000
   7328 H         199.0977   15.5647    1.9609 H       668      M_A    0.0000
   7329 H         197.7950   14.4897    1.6232 H       668      M_A    0.0000
   7330 H         199.4223   13.9862    1.3594 H       668      M_A    0.0000
   7331 Si        198.0597   16.0533    4.8794 Si      669      M_A    0.0000
   7332 C         197.8072   16.4204    6.6590 C.3     669      M_A    0.0000
   7333 C         199.8168   16.3908    4.4744 C.3     669      M_A    0.0000
   7334 O         197.0473   16.9127    3.9365 O.3     669      M_A    0.0000
   7335 H         198.0265   17.4388    6.8655 H       669      M_A    0.0000
   7336 H         196.8005   16.2311    6.9401 H       669      M_A    0.0000
   7337 H         198.4431   15.8170    7.2589 H       669      M_A    0.0000
   7338 H         200.0545   17.4090    4.6608 H       669      M_A    0.0000
   7339 H         200.0104   16.1839    3.4507 H       669      M_A    0.0000
   7340 H         200.4594   15.7873    5.0670 H       669      M_A    0.0000
   7341 Si        197.5959   17.8742    3.1291 Si      670      M_A    0.0000
   7342 C         199.1690   17.2018    2.4668 C.3     670      M_A    0.0000
   7343 C         196.4489   18.1262    1.7197 C.3     670      M_A    0.0000
   7344 O         197.8333   19.2503    3.9672 O.3     670      M_A    0.0000
   7345 H         199.6044   17.8807    1.7759 H       670      M_A    0.0000
   7346 H         199.8631   17.0330    3.2529 H       670      M_A    0.0000
   7347 H         198.9998   16.2814    1.9641 H       670      M_A    0.0000
   7348 H         196.8593   18.8136    1.0219 H       670      M_A    0.0000
   7349 H         195.5185   18.5095    2.0595 H       670      M_A    0.0000
   7350 H         196.2706   17.2090    1.2144 H       670      M_A    0.0000
   7351 Si        198.5474   20.2484    3.3579 Si      671      M_A    0.0000
   7352 C         200.1462   19.5281    2.8190 C.3     671      M_A    0.0000
   7353 C         197.6176   20.7507    1.8584 C.3     671      M_A    0.0000
   7354 O         198.7626   21.4972    4.3810 O.3     671      M_A    0.0000
   7355 H         200.7140   20.2425    2.2758 H       671      M_A    0.0000
   7356 H         200.7168   19.2155    3.6586 H       671      M_A    0.0000
   7357 H         199.9843   18.6873    2.1904 H       671      M_A    0.0000
   7358 H         198.1621   21.4764    1.3063 H       671      M_A    0.0000
   7359 H         196.6779   21.1683    2.1242 H       671      M_A    0.0000
   7360 H         197.4472   19.9140    1.2265 H       671      M_A    0.0000
   7361 Si        199.2673   22.6611    3.8632 Si      672      M_A    0.0000
   7362 C         201.0426   22.3750    3.5000 C.3     672      M_A    0.0000
   7363 C         198.4062   22.9727    2.2736 C.3     672      M_A    0.0000
   7364 O         199.0564   23.8872    4.9141 O.3     672      M_A    0.0000
   7365 H         201.4698   23.2258    3.0293 H       672      M_A    0.0000
   7366 H         201.5805   22.1824    4.3954 H       672      M_A    0.0000
   7367 H         201.1617   21.5430    2.8503 H       672      M_A    0.0000
   7368 H         198.8092   23.8290    1.7917 H       672      M_A    0.0000
   7369 H         197.3696   23.1371    2.4365 H       672      M_A    0.0000
   7370 H         198.5165   22.1427    1.6199 H       672      M_A    0.0000
   7371 Si        199.2045   25.1632    4.4373 Si      673      M_A    0.0000
   7372 C         200.3164   26.0545    5.5927 C.3     673      M_A    0.0000
   7373 C         200.0495   25.0470    2.8132 C.3     673      M_A    0.0000
   7374 O         197.7541   25.8934    4.3120 O.3     673      M_A    0.0000
   7375 H         200.5235   27.0321    5.2330 H       673      M_A    0.0000
   7376 H         199.8682   26.1388    6.5519 H       673      M_A    0.0000
   7377 H         201.2389   25.5381    5.6965 H       673      M_A    0.0000
   7378 H         200.2541   26.0153    2.4280 H       673      M_A    0.0000
   7379 H         199.4419   24.5295    2.1124 H       673      M_A    0.0000
   7380 H         200.9711   24.5272    2.9078 H       673      M_A    0.0000
   7381 Si        196.8151   25.6062    5.2676 Si      674      M_A    0.0000
   7382 C         195.1656   25.7663    4.4809 C.3     674      M_A    0.0000
   7383 C         197.0447   23.8517    5.7518 C.3     674      M_A    0.0000
   7384 O         196.9765   26.6094    6.5404 O.3     674      M_A    0.0000
   7385 H         194.3987   25.4854    5.1599 H       674      M_A    0.0000
   7386 H         194.9927   26.7692    4.1770 H       674      M_A    0.0000
   7387 H         195.0967   25.1391    3.6264 H       674      M_A    0.0000
   7388 H         196.2951   23.5532    6.4424 H       674      M_A    0.0000
   7389 H         197.9940   23.7111    6.2069 H       674      M_A    0.0000
   7390 H         196.9821   23.2181    4.9015 H       674      M_A    0.0000
   7391 Si        196.3975   27.8478    6.4488 Si      675      M_A    0.0000
   7392 C         197.6590   28.9938    5.7699 C.3     675      M_A    0.0000
   7393 C         195.0299   27.7249    5.2323 C.3     675      M_A    0.0000
   7394 O         195.8644   28.3338    7.9089 O.3     675      M_A    0.0000
   7395 H         197.2419   29.9575    5.6110 H       675      M_A    0.0000
   7396 H         198.4763   29.0896    6.4415 H       675      M_A    0.0000
   7397 H         198.0276   28.6357    4.8403 H       675      M_A    0.0000
   7398 H         194.5885   28.6769    5.0684 H       675      M_A    0.0000
   7399 H         194.2769   27.0628    5.5827 H       675      M_A    0.0000
   7400 H         195.3897   27.3625    4.3008 H       675      M_A    0.0000
   7401 Si        196.4073   27.7329    9.0141 Si      676      M_A    0.0000
   7402 C         195.4137   28.2545   10.4654 C.3     676      M_A    0.0000
   7403 C         196.2036   25.9213    8.8089 C.3     676      M_A    0.0000
   7404 O         197.9736   28.1496    9.1740 O.2     676      M_A    0.0000
   7405 H         195.7481   27.7610   11.3444 H       676      M_A    0.0000
   7406 H         195.4970   29.3023   10.6177 H       676      M_A    0.0000
   7407 H         194.3887   28.0157   10.3218 H       676      M_A    0.0000
   7408 H         196.5452   25.4063    9.6726 H       676      M_A    0.0000
   7409 H         196.7586   25.5757    7.9718 H       676      M_A    0.0000
   7410 H         195.1812   25.6748    8.6597 H       676      M_A    0.0000
@<TRIPOS>BOND
     1     1     2      1
     2     1     5      1
     3     3     4      1
     4     3   956      1
     5     5     6      1
     6     5     7      1
     7     5     9      1
     8     6    10      1
     9     6    11      1
    10     6    12      1
    11     7     8      1
    12     7    13      1
    13     7    14      1
    14     8    15      1
    15     8    16      1
    16     9    17      1
    17    17    18      1
    18    17    19      1
    19    17    20      1
    20    18    21      1
    21    18    22      1
    22    18    23      1
    23    19    24      1
    24    19    25      1
    25    19    26      1
    26    20    27      1
    27    27    28      1
    28    27    29      1
    29    27    30      1
    30    28    31      1
    31    28    32      1
    32    28    33      1
    33    29    34      1
    34    29    35      1
    35    29    36      1
    36    30    37      1
    37    37    38      1
    38    37    39      1
    39    37    40      1
    40    38    41      1
    41    38    42      1
    42    38    43      1
    43    39    44      1
    44    39    45      1
    45    39    46      1
    46    40    47      1
    47    47    48      1
    48    47    49      1
    49    47    50      1
    50    48    51      1
    51    48    52      1
    52    48    53      1
    53    49    54      1
    54    49    55      1
    55    49    56      1
    56    50    57      1
    57    57    58      1
    58    57    59      1
    59    57    61      1
    60    58    62      1
    61    58    63      1
    62    58    64      1
    63    59    60      1
    64    59    65      1
    65    59    66      1
    66    60    67      1
    67    60    68      1
    68    61    69      1
    69    69    70      1
    70    69    71      1
    71    69    73      1
    72    70    74      1
    73    70    75      1
    74    70    76      1
    75    71    72      1
    76    71    77      1
    77    71    78      1
    78    72    79      1
    79    72    80      1
    80    73    81      1
    81    81    82      1
    82    81    83      1
    83    81    84      1
    84    82    85      1
    85    82    86      1
    86    82    87      1
    87    83    88      1
    88    83    89      1
    89    83    90      1
    90    84    91      1
    91    91    92      1
    92    91    93      1
    93    91    94      1
    94    92    95      1
    95    92    96      1
    96    92    97      1
    97    93    98      1
    98    93    99      1
    99    93   100      1
   100    94   101      1
   101   101   102      1
   102   101   103      1
   103   101   104      1
   104   102   105      1
   105   102   106      1
   106   102   107      1
   107   103   108      1
   108   103   109      1
   109   103   110      1
   110   104   111      1
   111   111   112      1
   112   111   113      1
   113   111   114      1
   114   112   115      1
   115   112   116      1
   116   112   117      1
   117   113   118      1
   118   113   119      1
   119   113   120      1
   120   114   121      1
   121   121   122      1
   122   121   123      1
   123   121   125      1
   124   122   126      1
   125   122   127      1
   126   122   128      1
   127   123   124      1
   128   123   129      1
   129   123   130      1
   130   124   131      1
   131   124   132      1
   132   125   133      1
   133   133   134      1
   134   133   135      1
   135   133   137      1
   136   134   138      1
   137   134   139      1
   138   134   140      1
   139   135   136      1
   140   135   141      1
   141   135   142      1
   142   136   143      1
   143   136   144      1
   144   137   145      1
   145   145   146      1
   146   145   147      1
   147   145   148      1
   148   146   149      1
   149   146   150      1
   150   146   151      1
   151   147   152      1
   152   147   153      1
   153   147   154      1
   154   148   155      1
   155   155   156      1
   156   155   157      1
   157   155   159      1
   158   156   160      1
   159   156   161      1
   160   156   162      1
   161   157   158      1
   162   157   163      1
   163   157   164      1
   164   158   165      1
   165   158   166      1
   166   159   167      1
   167   167   168      1
   168   167   169      1
   169   167   170      1
   170   168   171      1
   171   168   172      1
   172   168   173      1
   173   169   174      1
   174   169   175      1
   175   169   176      1
   176   170   177      1
   177   177   178      1
   178   177   179      1
   179   177   181      1
   180   178   182      1
   181   178   183      1
   182   178   184      1
   183   179   180      1
   184   179   185      1
   185   179   186      1
   186   180   187      1
   187   180   188      1
   188   181   189      1
   189   189   190      1
   190   189   191      1
   191   189   193      1
   192   190   194      1
   193   190   195      1
   194   190   196      1
   195   191   192      1
   196   191   197      1
   197   191   198      1
   198   192   199      1
   199   192   200      1
   200   193   201      1
   201   201   202      1
   202   201   203      1
   203   201   204      1
   204   202   205      1
   205   202   206      1
   206   202   207      1
   207   203   208      1
   208   203   209      1
   209   203   210      1
   210   204   211      1
   211   211   212      1
   212   211   213      1
   213   211   214      1
   214   212   215      1
   215   212   216      1
   216   212   217      1
   217   213   218      1
   218   213   219      1
   219   213   220      1
   220   214   221      1
   221   221   222      1
   222   221   223      1
   223   221   224      1
   224   222   225      1
   225   222   226      1
   226   222   227      1
   227   223   228      1
   228   223   229      1
   229   223   230      1
   230   224   231      1
   231   231   232      1
   232   231   233      1
   233   231   235      1
   234   232   236      1
   235   232   237      1
   236   232   238      1
   237   233   234      1
   238   233   239      1
   239   233   240      1
   240   234   241      1
   241   234   242      1
   242   235   243      1
   243   243   244      1
   244   243   245      1
   245   243   247      1
   246   244   248      1
   247   244   249      1
   248   244   250      1
   249   245   246      1
   250   245   251      1
   251   245   252      1
   252   246   253      1
   253   246   254      1
   254   247   255      1
   255   255   256      1
   256   255   257      1
   257   255   258      1
   258   256   259      1
   259   256   260      1
   260   256   261      1
   261   257   262      1
   262   257   263      1
   263   257   264      1
   264   258   265      1
   265   265   266      1
   266   265   267      1
   267   265   269      1
   268   266   270      1
   269   266   271      1
   270   266   272      1
   271   267   268      1
   272   267   273      1
   273   267   274      1
   274   268   275      1
   275   268   276      1
   276   269   277      1
   277   277   278      1
   278   277   279      1
   279   277   281      1
   280   278   282      1
   281   278   283      1
   282   278   284      1
   283   279   280      1
   284   279   285      1
   285   279   286      1
   286   280   287      1
   287   280   288      1
   288   281   289      1
   289   289   290      1
   290   289   291      1
   291   289   292      1
   292   290   293      1
   293   290   294      1
   294   290   295      1
   295   291   296      1
   296   291   297      1
   297   291   298      1
   298   292   299      1
   299   299   300      1
   300   299   301      1
   301   299   302      1
   302   300   303      1
   303   300   304      1
   304   300   305      1
   305   301   306      1
   306   301   307      1
   307   301   308      1
   308   302   309      1
   309   309   310      1
   310   309   311      1
   311   309   312      1
   312   310   313      1
   313   310   314      1
   314   310   315      1
   315   311   316      1
   316   311   317      1
   317   311   318      1
   318   312   319      1
   319   319   320      1
   320   319   321      1
   321   319   323      1
   322   320   324      1
   323   320   325      1
   324   320   326      1
   325   321   322      1
   326   321   327      1
   327   321   328      1
   328   322   329      1
   329   322   330      1
   330   323   331      1
   331   331   332      1
   332   331   333      1
   333   331   335      1
   334   332   336      1
   335   332   337      1
   336   332   338      1
   337   333   334      1
   338   333   339      1
   339   333   340      1
   340   334   341      1
   341   334   342      1
   342   335   343      1
   343   343   344      1
   344   343   345      1
   345   343   346      1
   346   344   347      1
   347   344   348      1
   348   344   349      1
   349   345   350      1
   350   345   351      1
   351   345   352      1
   352   346   353      1
   353   353   354      1
   354   353   355      1
   355   353   356      1
   356   354   357      1
   357   354   358      1
   358   354   359      1
   359   355   360      1
   360   355   361      1
   361   355   362      1
   362   356   363      1
   363   363   364      1
   364   363   365      1
   365   363   367      1
   366   364   368      1
   367   364   369      1
   368   364   370      1
   369   365   366      1
   370   365   371      1
   371   365   372      1
   372   366   373      1
   373   366   374      1
   374   367   375      1
   375   375   376      1
   376   375   377      1
   377   375   379      1
   378   376   380      1
   379   376   381      1
   380   376   382      1
   381   377   378      1
   382   377   383      1
   383   377   384      1
   384   378   385      1
   385   378   386      1
   386   379   387      1
   387   387   388      1
   388   387   389      1
   389   387   391      1
   390   388   392      1
   391   388   393      1
   392   388   394      1
   393   389   390      1
   394   389   395      1
   395   389   396      1
   396   390   397      1
   397   390   398      1
   398   391   399      1
   399   399   400      1
   400   399   401      1
   401   399   403      1
   402   400   404      1
   403   400   405      1
   404   400   406      1
   405   401   402      1
   406   401   407      1
   407   401   408      1
   408   402   409      1
   409   402   410      1
   410   403   411      1
   411   411   412      1
   412   411   413      1
   413   411   414      1
   414   412   415      1
   415   412   416      1
   416   412   417      1
   417   413   418      1
   418   413   419      1
   419   413   420      1
   420   414   421      1
   421   421   422      1
   422   421   423      1
   423   421   424      1
   424   422   425      1
   425   422   426      1
   426   422   427      1
   427   423   428      1
   428   423   429      1
   429   423   430      1
   430   424   431      1
   431   431   432      1
   432   431   433      1
   433   431   435      1
   434   432   436      1
   435   432   437      1
   436   432   438      1
   437   433   434      1
   438   433   439      1
   439   433   440      1
   440   434   441      1
   441   434   442      1
   442   435   443      1
   443   443   444      1
   444   443   445      1
   445   443   446      1
   446   444   447      1
   447   444   448      1
   448   444   449      1
   449   445   450      1
   450   445   451      1
   451   445   452      1
   452   446   453      1
   453   453   454      1
   454   453   455      1
   455   453   456      1
   456   454   457      1
   457   454   458      1
   458   454   459      1
   459   455   460      1
   460   455   461      1
   461   455   462      1
   462   456   463      1
   463   463   464      1
   464   463   465      1
   465   463   467      1
   466   464   468      1
   467   464   469      1
   468   464   470      1
   469   465   466      1
   470   465   471      1
   471   465   472      1
   472   466   473      1
   473   466   474      1
   474   467   475      1
   475   475   476      1
   476   475   477      1
   477   475   478      1
   478   476   479      1
   479   476   480      1
   480   476   481      1
   481   477   482      1
   482   477   483      1
   483   477   484      1
   484   478   485      1
   485   485   486      1
   486   485   487      1
   487   485   489      1
   488   486   490      1
   489   486   491      1
   490   486   492      1
   491   487   488      1
   492   487   493      1
   493   487   494      1
   494   488   495      1
   495   488   496      1
   496   489   497      1
   497   497   498      1
   498   497   499      1
   499   497   501      1
   500   498   502      1
   501   498   503      1
   502   498   504      1
   503   499   500      1
   504   499   505      1
   505   499   506      1
   506   500   507      1
   507   500   508      1
   508   501   509      1
   509   509   510      1
   510   509   511      1
   511   509   512      1
   512   510   513      1
   513   510   514      1
   514   510   515      1
   515   511   516      1
   516   511   517      1
   517   511   518      1
   518   512   519      1
   519   519   520      1
   520   519   521      1
   521   519   523      1
   522   520   524      1
   523   520   525      1
   524   520   526      1
   525   521   522      1
   526   521   527      1
   527   521   528      1
   528   522   529      1
   529   522   530      1
   530   523   531      1
   531   531   532      1
   532   531   533      1
   533   531   534      1
   534   532   535      1
   535   532   536      1
   536   532   537      1
   537   533   538      1
   538   533   539      1
   539   533   540      1
   540   534   541      1
   541   541   542      1
   542   541   543      1
   543   541   545      1
   544   542   546      1
   545   542   547      1
   546   542   548      1
   547   543   544      1
   548   543   549      1
   549   543   550      1
   550   544   551      1
   551   544   552      1
   552   545   553      1
   553   553   554      1
   554   553   555      1
   555   553   556      1
   556   554   557      1
   557   554   558      1
   558   554   559      1
   559   555   560      1
   560   555   561      1
   561   555   562      1
   562   556   563      1
   563   563   564      1
   564   563   565      1
   565   563   566      1
   566   564   567      1
   567   564   568      1
   568   564   569      1
   569   565   570      1
   570   565   571      1
   571   565   572      1
   572   566   573      1
   573   573   574      1
   574   573   575      1
   575   573   577      1
   576   574   578      1
   577   574   579      1
   578   574   580      1
   579   575   576      1
   580   575   581      1
   581   575   582      1
   582   576   583      1
   583   576   584      1
   584   577   585      1
   585   585   586      1
   586   585   587      1
   587   585   588      1
   588   586   589      1
   589   586   590      1
   590   586   591      1
   591   587   592      1
   592   587   593      1
   593   587   594      1
   594   588   595      1
   595   595   596      1
   596   595   597      1
   597   595   599      1
   598   596   600      1
   599   596   601      1
   600   596   602      1
   601   597   598      1
   602   597   603      1
   603   597   604      1
   604   598   605      1
   605   598   606      1
   606   599   607      1
   607   607   608      1
   608   607   609      1
   609   607   610      1
   610   608   611      1
   611   608   612      1
   612   608   613      1
   613   609   614      1
   614   609   615      1
   615   609   616      1
   616   610   617      1
   617   617   618      1
   618   617   619      1
   619   617   620      1
   620   618   621      1
   621   618   622      1
   622   618   623      1
   623   619   624      1
   624   619   625      1
   625   619   626      1
   626   620   627      1
   627   627   628      1
   628   627   629      1
   629   627   630      1
   630   628   631      1
   631   628   632      1
   632   628   633      1
   633   629   634      1
   634   629   635      1
   635   629   636      1
   636   630   637      1
   637   637   638      1
   638   637   639      1
   639   637   640      1
   640   638   641      1
   641   638   642      1
   642   638   643      1
   643   639   644      1
   644   639   645      1
   645   639   646      1
   646   640   647      1
   647   647   648      1
   648   647   649      1
   649   647   651      1
   650   648   652      1
   651   648   653      1
   652   648   654      1
   653   649   650      1
   654   649   655      1
   655   649   656      1
   656   650   657      1
   657   650   658      1
   658   651   659      1
   659   659   660      1
   660   659   661      1
   661   659   662      1
   662   660   663      1
   663   660   664      1
   664   660   665      1
   665   661   666      1
   666   661   667      1
   667   661   668      1
   668   662   669      1
   669   669   670      1
   670   669   671      1
   671   669   673      1
   672   670   674      1
   673   670   675      1
   674   670   676      1
   675   671   672      1
   676   671   677      1
   677   671   678      1
   678   672   679      1
   679   672   680      1
   680   673   681      1
   681   681   682      1
   682   681   683      1
   683   681   684      1
   684   682   685      1
   685   682   686      1
   686   682   687      1
   687   683   688      1
   688   683   689      1
   689   683   690      1
   690   684   691      1
   691   691   692      1
   692   691   693      1
   693   691   695      1
   694   692   696      1
   695   692   697      1
   696   692   698      1
   697   693   694      1
   698   693   699      1
   699   693   700      1
   700   694   701      1
   701   694   702      1
   702   695   703      1
   703   703   704      1
   704   703   705      1
   705   703   707      1
   706   704   708      1
   707   704   709      1
   708   704   710      1
   709   705   706      1
   710   705   711      1
   711   705   712      1
   712   706   713      1
   713   706   714      1
   714   707   715      1
   715   715   716      1
   716   715   717      1
   717   715   718      1
   718   716   719      1
   719   716   720      1
   720   716   721      1
   721   717   722      1
   722   717   723      1
   723   717   724      1
   724   718   725      1
   725   725   726      1
   726   725   727      1
   727   725   728      1
   728   726   729      1
   729   726   730      1
   730   726   731      1
   731   727   732      1
   732   727   733      1
   733   727   734      1
   734   728   735      1
   735   735   736      1
   736   735   737      1
   737   735   739      1
   738   736   740      1
   739   736   741      1
   740   736   742      1
   741   737   738      1
   742   737   743      1
   743   737   744      1
   744   738   745      1
   745   738   746      1
   746   739   747      1
   747   747   748      1
   748   747   749      1
   749   747   750      1
   750   748   751      1
   751   748   752      1
   752   748   753      1
   753   749   754      1
   754   749   755      1
   755   749   756      1
   756   750   757      1
   757   757   758      1
   758   757   759      1
   759   757   761      1
   760   758   762      1
   761   758   763      1
   762   758   764      1
   763   759   760      1
   764   759   765      1
   765   759   766      1
   766   760   767      1
   767   760   768      1
   768   761   769      1
   769   769   770      1
   770   769   771      1
   771   769   773      1
   772   770   774      1
   773   770   775      1
   774   770   776      1
   775   771   772      1
   776   771   777      1
   777   771   778      1
   778   772   779      1
   779   772   780      1
   780   773   781      1
   781   781   782      1
   782   781   783      1
   783   781   784      1
   784   782   785      1
   785   782   786      1
   786   782   787      1
   787   783   788      1
   788   783   789      1
   789   783   790      1
   790   784   791      1
   791   791   792      1
   792   791   793      1
   793   791   794      1
   794   792   795      1
   795   792   796      1
   796   792   797      1
   797   793   798      1
   798   793   799      1
   799   793   800      1
   800   794   801      1
   801   801   802      1
   802   801   803      1
   803   801   805      1
   804   802   806      1
   805   802   807      1
   806   802   808      1
   807   803   804      1
   808   803   809      1
   809   803   810      1
   810   804   811      1
   811   804   812      1
   812   805   813      1
   813   813   814      1
   814   813   815      1
   815   813   817      1
   816   814   818      1
   817   814   819      1
   818   814   820      1
   819   815   816      1
   820   815   821      1
   821   815   822      1
   822   816   823      1
   823   816   824      1
   824   817   825      1
   825   825   826      1
   826   825   827      1
   827   825   828      1
   828   826   829      1
   829   826   830      1
   830   826   831      1
   831   827   832      1
   832   827   833      1
   833   827   834      1
   834   828   835      1
   835   835   836      1
   836   835   837      1
   837   835   839      1
   838   836   840      1
   839   836   841      1
   840   836   842      1
   841   837   838      1
   842   837   843      1
   843   837   844      1
   844   838   845      1
   845   838   846      1
   846   839   847      1
   847   847   848      1
   848   847   849      1
   849   847   850      1
   850   848   851      1
   851   848   852      1
   852   848   853      1
   853   849   854      1
   854   849   855      1
   855   849   856      1
   856   850   857      1
   857   857   858      1
   858   857   859      1
   859   857   860      1
   860   858   861      1
   861   858   862      1
   862   858   863      1
   863   859   864      1
   864   859   865      1
   865   859   866      1
   866   860   867      1
   867   867   868      1
   868   867   869      1
   869   867   871      1
   870   868   872      1
   871   868   873      1
   872   868   874      1
   873   869   870      1
   874   869   875      1
   875   869   876      1
   876   870   877      1
   877   870   878      1
   878   871   879      1
   879   879   880      1
   880   879   881      1
   881   879   882      1
   882   880   883      1
   883   880   884      1
   884   880   885      1
   885   881   886      1
   886   881   887      1
   887   881   888      1
   888   882   889      1
   889   889   890      1
   890   889   891      1
   891   889   893      1
   892   890   894      1
   893   890   895      1
   894   890   896      1
   895   891   892      1
   896   891   897      1
   897   891   898      1
   898   892   899      1
   899   892   900      1
   900   893   901      1
   901   901   902      1
   902   901   903      1
   903   901   904      1
   904   902   905      1
   905   902   906      1
   906   902   907      1
   907   903   908      1
   908   903   909      1
   909   903   910      1
   910   904   911      1
   911   911   912      1
   912   911   913      1
   913   911   914      1
   914   912   915      1
   915   912   916      1
   916   912   917      1
   917   913   918      1
   918   913   919      1
   919   913   920      1
   920   914   921      1
   921   921   922      1
   922   921   923      1
   923   921   924      1
   924   922   925      1
   925   922   926      1
   926   922   927      1
   927   923   928      1
   928   923   929      1
   929   923   930      1
   930   924   931      1
   931   931   932      1
   932   931   933      1
   933   931   935      1
   934   932   936      1
   935   932   937      1
   936   932   938      1
   937   933   934      1
   938   933   939      1
   939   933   940      1
   940   934   941      1
   941   934   942      1
   942   935   943      1
   943   943   944      1
   944   943   945      1
   945   943   946      1
   946   944   947      1
   947   944   948      1
   948   944   949      1
   949   945   950      1
   950   945   951      1
   951   945   952      1
   952   946   953      1
   953   953   954      1
   954   953   955      1
   955   953   956      1
   956   954   957      1
   957   954   958      1
   958   954   959      1
   959   955   960      1
   960   955   961      1
   961   955   962      1
   962   963   964      1
   963   965   966      1
   964   967   968      1
   965   969   970      1
   966   971   972      1
   967   973   974      1
   968   975   976      1
   969   977   978      1
   970   979   980      1
   971   981   982      1
   972   983   984      1
   973   985   986      1
   974   987   988      1
   975   989   990      1
   976   991   992      1
   977   993   994      1
   978   995   996      1
   979   997   998      1
   980   999  1000      1
   981  1001  1002      1
   982  1003  1004      1
   983  1005  1006      1
   984  1007  1008      1
   985  1009  1010      1
   986  1011  1012      1
   987  1013  1014      1
   988  1015  1016      1
   989  1017  1018      1
   990  1019  1020      1
   991  1021  1022      1
   992  1023  1024      1
   993  1025  1026      1
   994  1027  1028      1
   995  1029  1030      1
   996  1031  1032      1
   997  1033  1034      1
   998  1035  1036      1
   999  1037  1038      1
  1000  1039  1040      1
  1001  1041  1042      1
  1002  1041  1043      1
  1003  1041  1044      1
  1004  1042  1045      1
  1005  1042  1046      1
  1006  1042  1047      1
  1007  1043  1048      1
  1008  1043  1049      1
  1009  1043  1050      1
  1010  1044  1051      1
  1011  1051  1052      1
  1012  1051  1053      1
  1013  1051  1054      1
  1014  1052  1055      1
  1015  1052  1056      1
  1016  1052  1057      1
  1017  1053  1058      1
  1018  1053  1059      1
  1019  1053  1060      1
  1020  1054  1061      1
  1021  1061  1062      1
  1022  1061  1063      1
  1023  1061  1064      1
  1024  1062  1065      1
  1025  1062  1066      1
  1026  1062  1067      1
  1027  1063  1068      1
  1028  1063  1069      1
  1029  1063  1070      1
  1030  1064  1071      1
  1031  1071  1072      1
  1032  1071  1073      1
  1033  1071  1074      1
  1034  1072  1075      1
  1035  1072  1076      1
  1036  1072  1077      1
  1037  1073  1078      1
  1038  1073  1079      1
  1039  1073  1080      1
  1040  1074  1081      1
  1041  1081  1082      1
  1042  1081  1083      1
  1043  1081  1084      1
  1044  1082  1085      1
  1045  1082  1086      1
  1046  1082  1087      1
  1047  1083  1088      1
  1048  1083  1089      1
  1049  1083  1090      1
  1050  1084  1091      1
  1051  1091  1092      1
  1052  1091  1093      1
  1053  1091  1094      1
  1054  1092  1095      1
  1055  1092  1096      1
  1056  1092  1097      1
  1057  1093  1098      1
  1058  1093  1099      1
  1059  1093  1100      1
  1060  1094  1101      1
  1061  1101  1102      1
  1062  1101  1103      1
  1063  1101  1104      1
  1064  1102  1105      1
  1065  1102  1106      1
  1066  1102  1107      1
  1067  1103  1108      1
  1068  1103  1109      1
  1069  1103  1110      1
  1070  1104  1111      1
  1071  1111  1112      1
  1072  1111  1113      1
  1073  1111  1114      1
  1074  1112  1115      1
  1075  1112  1116      1
  1076  1112  1117      1
  1077  1113  1118      1
  1078  1113  1119      1
  1079  1113  1120      1
  1080  1114  1121      1
  1081  1121  1122      1
  1082  1121  1123      1
  1083  1121  1124      1
  1084  1122  1125      1
  1085  1122  1126      1
  1086  1122  1127      1
  1087  1123  1128      1
  1088  1123  1129      1
  1089  1123  1130      1
  1090  1124  1131      1
  1091  1131  1132      1
  1092  1131  1133      1
  1093  1131  1134      1
  1094  1132  1135      1
  1095  1132  1136      1
  1096  1132  1137      1
  1097  1133  1138      1
  1098  1133  1139      1
  1099  1133  1140      1
  1100  1134  1141      1
  1101  1141  1142      1
  1102  1141  1143      1
  1103  1141  1144      1
  1104  1142  1145      1
  1105  1142  1146      1
  1106  1142  1147      1
  1107  1143  1148      1
  1108  1143  1149      1
  1109  1143  1150      1
  1110  1144  1151      1
  1111  1151  1152      1
  1112  1151  1153      1
  1113  1151  1154      1
  1114  1152  1155      1
  1115  1152  1156      1
  1116  1152  1157      1
  1117  1153  1158      1
  1118  1153  1159      1
  1119  1153  1160      1
  1120  1154  1161      1
  1121  1161  1162      1
  1122  1161  1163      1
  1123  1161  1164      1
  1124  1162  1165      1
  1125  1162  1166      1
  1126  1162  1167      1
  1127  1163  1168      1
  1128  1163  1169      1
  1129  1163  1170      1
  1130  1164  1171      1
  1131  1171  1172      1
  1132  1171  1173      1
  1133  1171  1174      1
  1134  1172  1175      1
  1135  1172  1176      1
  1136  1172  1177      1
  1137  1173  1178      1
  1138  1173  1179      1
  1139  1173  1180      1
  1140  1174  1181      1
  1141  1181  1182      1
  1142  1181  1183      1
  1143  1181  1184      1
  1144  1182  1185      1
  1145  1182  1186      1
  1146  1182  1187      1
  1147  1183  1188      1
  1148  1183  1189      1
  1149  1183  1190      1
  1150  1184  1191      1
  1151  1191  1192      1
  1152  1191  1193      1
  1153  1191  1194      1
  1154  1192  1195      1
  1155  1192  1196      1
  1156  1192  1197      1
  1157  1193  1198      1
  1158  1193  1199      1
  1159  1193  1200      1
  1160  1194  1201      1
  1161  1201  1202      1
  1162  1201  1203      1
  1163  1201  1204      1
  1164  1202  1205      1
  1165  1202  1206      1
  1166  1202  1207      1
  1167  1203  1208      1
  1168  1203  1209      1
  1169  1203  1210      1
  1170  1211  1212      1
  1171  1211  1213      1
  1172  1211  1214      1
  1173  1212  1215      1
  1174  1212  1216      1
  1175  1212  1217      1
  1176  1213  1218      1
  1177  1213  1219      1
  1178  1213  1220      1
  1179  1214  1221      1
  1180  1221  1222      1
  1181  1221  1223      1
  1182  1221  1224      1
  1183  1222  1225      1
  1184  1222  1226      1
  1185  1222  1227      1
  1186  1223  1228      1
  1187  1223  1229      1
  1188  1223  1230      1
  1189  1224  1231      1
  1190  1231  1232      1
  1191  1231  1233      1
  1192  1231  1234      1
  1193  1232  1235      1
  1194  1232  1236      1
  1195  1232  1237      1
  1196  1233  1238      1
  1197  1233  1239      1
  1198  1233  1240      1
  1199  1234  1241      1
  1200  1241  1242      1
  1201  1241  1243      1
  1202  1241  1244      1
  1203  1242  1245      1
  1204  1242  1246      1
  1205  1242  1247      1
  1206  1243  1248      1
  1207  1243  1249      1
  1208  1243  1250      1
  1209  1244  1251      1
  1210  1251  1252      1
  1211  1251  1253      1
  1212  1251  1254      1
  1213  1252  1255      1
  1214  1252  1256      1
  1215  1252  1257      1
  1216  1253  1258      1
  1217  1253  1259      1
  1218  1253  1260      1
  1219  1254  1261      1
  1220  1261  1262      1
  1221  1261  1263      1
  1222  1261  1264      1
  1223  1262  1265      1
  1224  1262  1266      1
  1225  1262  1267      1
  1226  1263  1268      1
  1227  1263  1269      1
  1228  1263  1270      1
  1229  1264  1271      1
  1230  1271  1272      1
  1231  1271  1273      1
  1232  1271  1274      1
  1233  1272  1275      1
  1234  1272  1276      1
  1235  1272  1277      1
  1236  1273  1278      1
  1237  1273  1279      1
  1238  1273  1280      1
  1239  1274  1281      1
  1240  1281  1282      1
  1241  1281  1283      1
  1242  1281  1284      1
  1243  1282  1285      1
  1244  1282  1286      1
  1245  1282  1287      1
  1246  1283  1288      1
  1247  1283  1289      1
  1248  1283  1290      1
  1249  1284  1291      1
  1250  1291  1292      1
  1251  1291  1293      1
  1252  1291  1294      1
  1253  1292  1295      1
  1254  1292  1296      1
  1255  1292  1297      1
  1256  1293  1298      1
  1257  1293  1299      1
  1258  1293  1300      1
  1259  1294  1301      1
  1260  1301  1302      1
  1261  1301  1303      1
  1262  1301  1304      1
  1263  1302  1305      1
  1264  1302  1306      1
  1265  1302  1307      1
  1266  1303  1308      1
  1267  1303  1309      1
  1268  1303  1310      1
  1269  1304  1311      1
  1270  1311  1312      1
  1271  1311  1313      1
  1272  1311  1314      1
  1273  1312  1315      1
  1274  1312  1316      1
  1275  1312  1317      1
  1276  1313  1318      1
  1277  1313  1319      1
  1278  1313  1320      1
  1279  1314  1321      1
  1280  1321  1322      1
  1281  1321  1323      1
  1282  1321  1324      1
  1283  1322  1325      1
  1284  1322  1326      1
  1285  1322  1327      1
  1286  1323  1328      1
  1287  1323  1329      1
  1288  1323  1330      1
  1289  1324  1331      1
  1290  1331  1332      1
  1291  1331  1333      1
  1292  1331  1334      1
  1293  1332  1335      1
  1294  1332  1336      1
  1295  1332  1337      1
  1296  1333  1338      1
  1297  1333  1339      1
  1298  1333  1340      1
  1299  1334  1341      1
  1300  1341  1342      1
  1301  1341  1343      1
  1302  1341  1344      1
  1303  1342  1345      1
  1304  1342  1346      1
  1305  1342  1347      1
  1306  1343  1348      1
  1307  1343  1349      1
  1308  1343  1350      1
  1309  1344  1351      1
  1310  1351  1352      1
  1311  1351  1353      1
  1312  1351  1354      1
  1313  1352  1355      1
  1314  1352  1356      1
  1315  1352  1357      1
  1316  1353  1358      1
  1317  1353  1359      1
  1318  1353  1360      1
  1319  1354  1361      1
  1320  1361  1362      1
  1321  1361  1363      1
  1322  1361  1364      1
  1323  1362  1365      1
  1324  1362  1366      1
  1325  1362  1367      1
  1326  1363  1368      1
  1327  1363  1369      1
  1328  1363  1370      1
  1329  1371  1372      1
  1330  1371  1373      1
  1331  1371  1374      1
  1332  1372  1375      1
  1333  1372  1376      1
  1334  1372  1377      1
  1335  1373  1378      1
  1336  1373  1379      1
  1337  1373  1380      1
  1338  1374  1381      1
  1339  1381  1382      1
  1340  1381  1383      1
  1341  1381  1384      1
  1342  1382  1385      1
  1343  1382  1386      1
  1344  1382  1387      1
  1345  1383  1388      1
  1346  1383  1389      1
  1347  1383  1390      1
  1348  1384  1391      1
  1349  1391  1392      1
  1350  1391  1393      1
  1351  1391  1394      1
  1352  1392  1395      1
  1353  1392  1396      1
  1354  1392  1397      1
  1355  1393  1398      1
  1356  1393  1399      1
  1357  1393  1400      1
  1358  1394  1401      1
  1359  1401  1402      1
  1360  1401  1403      1
  1361  1401  1404      1
  1362  1402  1405      1
  1363  1402  1406      1
  1364  1402  1407      1
  1365  1403  1408      1
  1366  1403  1409      1
  1367  1403  1410      1
  1368  1404  1411      1
  1369  1411  1412      1
  1370  1411  1413      1
  1371  1411  1414      1
  1372  1412  1415      1
  1373  1412  1416      1
  1374  1412  1417      1
  1375  1413  1418      1
  1376  1413  1419      1
  1377  1413  1420      1
  1378  1414  1421      1
  1379  1421  1422      1
  1380  1421  1423      1
  1381  1421  1424      1
  1382  1422  1425      1
  1383  1422  1426      1
  1384  1422  1427      1
  1385  1423  1428      1
  1386  1423  1429      1
  1387  1423  1430      1
  1388  1424  1431      1
  1389  1431  1432      1
  1390  1431  1433      1
  1391  1431  1434      1
  1392  1432  1435      1
  1393  1432  1436      1
  1394  1432  1437      1
  1395  1433  1438      1
  1396  1433  1439      1
  1397  1433  1440      1
  1398  1434  1441      1
  1399  1441  1442      1
  1400  1441  1443      1
  1401  1441  1444      1
  1402  1442  1445      1
  1403  1442  1446      1
  1404  1442  1447      1
  1405  1443  1448      1
  1406  1443  1449      1
  1407  1443  1450      1
  1408  1444  1451      1
  1409  1451  1452      1
  1410  1451  1453      1
  1411  1451  1454      1
  1412  1452  1455      1
  1413  1452  1456      1
  1414  1452  1457      1
  1415  1453  1458      1
  1416  1453  1459      1
  1417  1453  1460      1
  1418  1454  1461      1
  1419  1461  1462      1
  1420  1461  1463      1
  1421  1461  1464      1
  1422  1462  1465      1
  1423  1462  1466      1
  1424  1462  1467      1
  1425  1463  1468      1
  1426  1463  1469      1
  1427  1463  1470      1
  1428  1464  1471      1
  1429  1471  1472      1
  1430  1471  1473      1
  1431  1471  1474      1
  1432  1472  1475      1
  1433  1472  1476      1
  1434  1472  1477      1
  1435  1473  1478      1
  1436  1473  1479      1
  1437  1473  1480      1
  1438  1474  1481      1
  1439  1481  1482      1
  1440  1481  1483      1
  1441  1481  1484      1
  1442  1482  1485      1
  1443  1482  1486      1
  1444  1482  1487      1
  1445  1483  1488      1
  1446  1483  1489      1
  1447  1483  1490      1
  1448  1484  1491      1
  1449  1491  1492      1
  1450  1491  1493      1
  1451  1491  1494      1
  1452  1492  1495      1
  1453  1492  1496      1
  1454  1492  1497      1
  1455  1493  1498      1
  1456  1493  1499      1
  1457  1493  1500      1
  1458  1494  1501      1
  1459  1501  1502      1
  1460  1501  1503      1
  1461  1501  1504      1
  1462  1502  1505      1
  1463  1502  1506      1
  1464  1502  1507      1
  1465  1503  1508      1
  1466  1503  1509      1
  1467  1503  1510      1
  1468  1504  1511      1
  1469  1511  1512      1
  1470  1511  1513      1
  1471  1511  1514      1
  1472  1512  1515      1
  1473  1512  1516      1
  1474  1512  1517      1
  1475  1513  1518      1
  1476  1513  1519      1
  1477  1513  1520      1
  1478  1521  1522      1
  1479  1521  1523      1
  1480  1521  1524      1
  1481  1522  1525      1
  1482  1522  1526      1
  1483  1522  1527      1
  1484  1523  1528      1
  1485  1523  1529      1
  1486  1523  1530      1
  1487  1524  1531      1
  1488  1531  1532      1
  1489  1531  1533      1
  1490  1531  1534      1
  1491  1532  1535      1
  1492  1532  1536      1
  1493  1532  1537      1
  1494  1533  1538      1
  1495  1533  1539      1
  1496  1533  1540      1
  1497  1534  1541      1
  1498  1541  1542      1
  1499  1541  1543      1
  1500  1541  1544      1
  1501  1542  1545      1
  1502  1542  1546      1
  1503  1542  1547      1
  1504  1543  1548      1
  1505  1543  1549      1
  1506  1543  1550      1
  1507  1544  1551      1
  1508  1551  1552      1
  1509  1551  1553      1
  1510  1551  1554      1
  1511  1552  1555      1
  1512  1552  1556      1
  1513  1552  1557      1
  1514  1553  1558      1
  1515  1553  1559      1
  1516  1553  1560      1
  1517  1554  1561      1
  1518  1561  1562      1
  1519  1561  1563      1
  1520  1561  1564      1
  1521  1562  1565      1
  1522  1562  1566      1
  1523  1562  1567      1
  1524  1563  1568      1
  1525  1563  1569      1
  1526  1563  1570      1
  1527  1564  1571      1
  1528  1571  1572      1
  1529  1571  1573      1
  1530  1571  1574      1
  1531  1572  1575      1
  1532  1572  1576      1
  1533  1572  1577      1
  1534  1573  1578      1
  1535  1573  1579      1
  1536  1573  1580      1
  1537  1574  1581      1
  1538  1581  1582      1
  1539  1581  1583      1
  1540  1581  1584      1
  1541  1582  1585      1
  1542  1582  1586      1
  1543  1582  1587      1
  1544  1583  1588      1
  1545  1583  1589      1
  1546  1583  1590      1
  1547  1584  1591      1
  1548  1591  1592      1
  1549  1591  1593      1
  1550  1591  1594      1
  1551  1592  1595      1
  1552  1592  1596      1
  1553  1592  1597      1
  1554  1593  1598      1
  1555  1593  1599      1
  1556  1593  1600      1
  1557  1594  1601      1
  1558  1601  1602      1
  1559  1601  1603      1
  1560  1601  1604      1
  1561  1602  1605      1
  1562  1602  1606      1
  1563  1602  1607      1
  1564  1603  1608      1
  1565  1603  1609      1
  1566  1603  1610      1
  1567  1604  1611      1
  1568  1611  1612      1
  1569  1611  1613      1
  1570  1611  1614      1
  1571  1612  1615      1
  1572  1612  1616      1
  1573  1612  1617      1
  1574  1613  1618      1
  1575  1613  1619      1
  1576  1613  1620      1
  1577  1614  1621      1
  1578  1621  1622      1
  1579  1621  1623      1
  1580  1621  1624      1
  1581  1622  1625      1
  1582  1622  1626      1
  1583  1622  1627      1
  1584  1623  1628      1
  1585  1623  1629      1
  1586  1623  1630      1
  1587  1624  1631      1
  1588  1631  1632      1
  1589  1631  1633      1
  1590  1631  1634      1
  1591  1632  1635      1
  1592  1632  1636      1
  1593  1632  1637      1
  1594  1633  1638      1
  1595  1633  1639      1
  1596  1633  1640      1
  1597  1634  1641      1
  1598  1641  1642      1
  1599  1641  1643      1
  1600  1641  1644      1
  1601  1642  1645      1
  1602  1642  1646      1
  1603  1642  1647      1
  1604  1643  1648      1
  1605  1643  1649      1
  1606  1643  1650      1
  1607  1644  1651      1
  1608  1651  1652      1
  1609  1651  1653      1
  1610  1651  1654      1
  1611  1652  1655      1
  1612  1652  1656      1
  1613  1652  1657      1
  1614  1653  1658      1
  1615  1653  1659      1
  1616  1653  1660      1
  1617  1654  1661      1
  1618  1661  1662      1
  1619  1661  1663      1
  1620  1661  1664      1
  1621  1662  1665      1
  1622  1662  1666      1
  1623  1662  1667      1
  1624  1663  1668      1
  1625  1663  1669      1
  1626  1663  1670      1
  1627  1671  1672      1
  1628  1671  1673      1
  1629  1671  1674      1
  1630  1672  1675      1
  1631  1672  1676      1
  1632  1672  1677      1
  1633  1673  1678      1
  1634  1673  1679      1
  1635  1673  1680      1
  1636  1674  1681      1
  1637  1681  1682      1
  1638  1681  1683      1
  1639  1681  1684      1
  1640  1682  1685      1
  1641  1682  1686      1
  1642  1682  1687      1
  1643  1683  1688      1
  1644  1683  1689      1
  1645  1683  1690      1
  1646  1684  1691      1
  1647  1691  1692      1
  1648  1691  1693      1
  1649  1691  1694      1
  1650  1692  1695      1
  1651  1692  1696      1
  1652  1692  1697      1
  1653  1693  1698      1
  1654  1693  1699      1
  1655  1693  1700      1
  1656  1694  1701      1
  1657  1701  1702      1
  1658  1701  1703      1
  1659  1701  1704      1
  1660  1702  1705      1
  1661  1702  1706      1
  1662  1702  1707      1
  1663  1703  1708      1
  1664  1703  1709      1
  1665  1703  1710      1
  1666  1704  1711      1
  1667  1711  1712      1
  1668  1711  1713      1
  1669  1711  1714      1
  1670  1712  1715      1
  1671  1712  1716      1
  1672  1712  1717      1
  1673  1713  1718      1
  1674  1713  1719      1
  1675  1713  1720      1
  1676  1714  1721      1
  1677  1721  1722      1
  1678  1721  1723      1
  1679  1721  1724      1
  1680  1722  1725      1
  1681  1722  1726      1
  1682  1722  1727      1
  1683  1723  1728      1
  1684  1723  1729      1
  1685  1723  1730      1
  1686  1724  1731      1
  1687  1731  1732      1
  1688  1731  1733      1
  1689  1731  1734      1
  1690  1732  1735      1
  1691  1732  1736      1
  1692  1732  1737      1
  1693  1733  1738      1
  1694  1733  1739      1
  1695  1733  1740      1
  1696  1734  1741      1
  1697  1741  1742      1
  1698  1741  1743      1
  1699  1741  1744      1
  1700  1742  1745      1
  1701  1742  1746      1
  1702  1742  1747      1
  1703  1743  1748      1
  1704  1743  1749      1
  1705  1743  1750      1
  1706  1744  1751      1
  1707  1751  1752      1
  1708  1751  1753      1
  1709  1751  1754      1
  1710  1752  1755      1
  1711  1752  1756      1
  1712  1752  1757      1
  1713  1753  1758      1
  1714  1753  1759      1
  1715  1753  1760      1
  1716  1754  1761      1
  1717  1761  1762      1
  1718  1761  1763      1
  1719  1761  1764      1
  1720  1762  1765      1
  1721  1762  1766      1
  1722  1762  1767      1
  1723  1763  1768      1
  1724  1763  1769      1
  1725  1763  1770      1
  1726  1764  1771      1
  1727  1771  1772      1
  1728  1771  1773      1
  1729  1771  1774      1
  1730  1772  1775      1
  1731  1772  1776      1
  1732  1772  1777      1
  1733  1773  1778      1
  1734  1773  1779      1
  1735  1773  1780      1
  1736  1774  1781      1
  1737  1781  1782      1
  1738  1781  1783      1
  1739  1781  1784      1
  1740  1782  1785      1
  1741  1782  1786      1
  1742  1782  1787      1
  1743  1783  1788      1
  1744  1783  1789      1
  1745  1783  1790      1
  1746  1784  1791      1
  1747  1791  1792      1
  1748  1791  1793      1
  1749  1791  1794      1
  1750  1792  1795      1
  1751  1792  1796      1
  1752  1792  1797      1
  1753  1793  1798      1
  1754  1793  1799      1
  1755  1793  1800      1
  1756  1794  1801      1
  1757  1801  1802      1
  1758  1801  1803      1
  1759  1801  1804      1
  1760  1802  1805      1
  1761  1802  1806      1
  1762  1802  1807      1
  1763  1803  1808      1
  1764  1803  1809      1
  1765  1803  1810      1
  1766  1804  1811      1
  1767  1811  1812      1
  1768  1811  1813      1
  1769  1811  1814      1
  1770  1812  1815      1
  1771  1812  1816      1
  1772  1812  1817      1
  1773  1813  1818      1
  1774  1813  1819      1
  1775  1813  1820      1
  1776  1821  1822      1
  1777  1821  1823      1
  1778  1821  1824      1
  1779  1822  1825      1
  1780  1822  1826      1
  1781  1822  1827      1
  1782  1823  1828      1
  1783  1823  1829      1
  1784  1823  1830      1
  1785  1824  1831      1
  1786  1831  1832      1
  1787  1831  1833      1
  1788  1831  1834      1
  1789  1832  1835      1
  1790  1832  1836      1
  1791  1832  1837      1
  1792  1833  1838      1
  1793  1833  1839      1
  1794  1833  1840      1
  1795  1834  1841      1
  1796  1841  1842      1
  1797  1841  1843      1
  1798  1841  1844      1
  1799  1842  1845      1
  1800  1842  1846      1
  1801  1842  1847      1
  1802  1843  1848      1
  1803  1843  1849      1
  1804  1843  1850      1
  1805  1844  1851      1
  1806  1851  1852      1
  1807  1851  1853      1
  1808  1851  1854      1
  1809  1852  1855      1
  1810  1852  1856      1
  1811  1852  1857      1
  1812  1853  1858      1
  1813  1853  1859      1
  1814  1853  1860      1
  1815  1854  1861      1
  1816  1861  1862      1
  1817  1861  1863      1
  1818  1861  1864      1
  1819  1862  1865      1
  1820  1862  1866      1
  1821  1862  1867      1
  1822  1863  1868      1
  1823  1863  1869      1
  1824  1863  1870      1
  1825  1864  1871      1
  1826  1871  1872      1
  1827  1871  1873      1
  1828  1871  1874      1
  1829  1872  1875      1
  1830  1872  1876      1
  1831  1872  1877      1
  1832  1873  1878      1
  1833  1873  1879      1
  1834  1873  1880      1
  1835  1874  1881      1
  1836  1881  1882      1
  1837  1881  1883      1
  1838  1881  1884      1
  1839  1882  1885      1
  1840  1882  1886      1
  1841  1882  1887      1
  1842  1883  1888      1
  1843  1883  1889      1
  1844  1883  1890      1
  1845  1884  1891      1
  1846  1891  1892      1
  1847  1891  1893      1
  1848  1891  1894      1
  1849  1892  1895      1
  1850  1892  1896      1
  1851  1892  1897      1
  1852  1893  1898      1
  1853  1893  1899      1
  1854  1893  1900      1
  1855  1894  1901      1
  1856  1901  1902      1
  1857  1901  1903      1
  1858  1901  1904      1
  1859  1902  1905      1
  1860  1902  1906      1
  1861  1902  1907      1
  1862  1903  1908      1
  1863  1903  1909      1
  1864  1903  1910      1
  1865  1904  1911      1
  1866  1911  1912      1
  1867  1911  1913      1
  1868  1911  1914      1
  1869  1912  1915      1
  1870  1912  1916      1
  1871  1912  1917      1
  1872  1913  1918      1
  1873  1913  1919      1
  1874  1913  1920      1
  1875  1914  1921      1
  1876  1921  1922      1
  1877  1921  1923      1
  1878  1921  1924      1
  1879  1922  1925      1
  1880  1922  1926      1
  1881  1922  1927      1
  1882  1923  1928      1
  1883  1923  1929      1
  1884  1923  1930      1
  1885  1924  1931      1
  1886  1931  1932      1
  1887  1931  1933      1
  1888  1931  1934      1
  1889  1932  1935      1
  1890  1932  1936      1
  1891  1932  1937      1
  1892  1933  1938      1
  1893  1933  1939      1
  1894  1933  1940      1
  1895  1934  1941      1
  1896  1941  1942      1
  1897  1941  1943      1
  1898  1941  1944      1
  1899  1942  1945      1
  1900  1942  1946      1
  1901  1942  1947      1
  1902  1943  1948      1
  1903  1943  1949      1
  1904  1943  1950      1
  1905  1944  1951      1
  1906  1951  1952      1
  1907  1951  1953      1
  1908  1951  1954      1
  1909  1952  1955      1
  1910  1952  1956      1
  1911  1952  1957      1
  1912  1953  1958      1
  1913  1953  1959      1
  1914  1953  1960      1
  1915  1954  1961      1
  1916  1961  1962      1
  1917  1961  1963      1
  1918  1961  1964      1
  1919  1962  1965      1
  1920  1962  1966      1
  1921  1962  1967      1
  1922  1963  1968      1
  1923  1963  1969      1
  1924  1963  1970      1
  1925  1964  1971      1
  1926  1971  1972      1
  1927  1971  1973      1
  1928  1971  1974      1
  1929  1972  1975      1
  1930  1972  1976      1
  1931  1972  1977      1
  1932  1973  1978      1
  1933  1973  1979      1
  1934  1973  1980      1
  1935  1981  1982      1
  1936  1981  1983      1
  1937  1981  1984      1
  1938  1982  1985      1
  1939  1982  1986      1
  1940  1982  1987      1
  1941  1983  1988      1
  1942  1983  1989      1
  1943  1983  1990      1
  1944  1984  1991      1
  1945  1991  1992      1
  1946  1991  1993      1
  1947  1991  1994      1
  1948  1992  1995      1
  1949  1992  1996      1
  1950  1992  1997      1
  1951  1993  1998      1
  1952  1993  1999      1
  1953  1993  2000      1
  1954  1994  2001      1
  1955  2001  2002      1
  1956  2001  2003      1
  1957  2001  2004      1
  1958  2002  2005      1
  1959  2002  2006      1
  1960  2002  2007      1
  1961  2003  2008      1
  1962  2003  2009      1
  1963  2003  2010      1
  1964  2004  2011      1
  1965  2011  2012      1
  1966  2011  2013      1
  1967  2011  2014      1
  1968  2012  2015      1
  1969  2012  2016      1
  1970  2012  2017      1
  1971  2013  2018      1
  1972  2013  2019      1
  1973  2013  2020      1
  1974  2014  2021      1
  1975  2021  2022      1
  1976  2021  2023      1
  1977  2021  2024      1
  1978  2022  2025      1
  1979  2022  2026      1
  1980  2022  2027      1
  1981  2023  2028      1
  1982  2023  2029      1
  1983  2023  2030      1
  1984  2024  2031      1
  1985  2031  2032      1
  1986  2031  2033      1
  1987  2031  2034      1
  1988  2032  2035      1
  1989  2032  2036      1
  1990  2032  2037      1
  1991  2033  2038      1
  1992  2033  2039      1
  1993  2033  2040      1
  1994  2034  2041      1
  1995  2041  2042      1
  1996  2041  2043      1
  1997  2041  2044      1
  1998  2042  2045      1
  1999  2042  2046      1
  2000  2042  2047      1
  2001  2043  2048      1
  2002  2043  2049      1
  2003  2043  2050      1
  2004  2044  2051      1
  2005  2051  2052      1
  2006  2051  2053      1
  2007  2051  2054      1
  2008  2052  2055      1
  2009  2052  2056      1
  2010  2052  2057      1
  2011  2053  2058      1
  2012  2053  2059      1
  2013  2053  2060      1
  2014  2054  2061      1
  2015  2061  2062      1
  2016  2061  2063      1
  2017  2061  2064      1
  2018  2062  2065      1
  2019  2062  2066      1
  2020  2062  2067      1
  2021  2063  2068      1
  2022  2063  2069      1
  2023  2063  2070      1
  2024  2064  2071      1
  2025  2071  2072      1
  2026  2071  2073      1
  2027  2071  2074      1
  2028  2072  2075      1
  2029  2072  2076      1
  2030  2072  2077      1
  2031  2073  2078      1
  2032  2073  2079      1
  2033  2073  2080      1
  2034  2074  2081      1
  2035  2081  2082      1
  2036  2081  2083      1
  2037  2081  2084      1
  2038  2082  2085      1
  2039  2082  2086      1
  2040  2082  2087      1
  2041  2083  2088      1
  2042  2083  2089      1
  2043  2083  2090      1
  2044  2084  2091      1
  2045  2091  2092      1
  2046  2091  2093      1
  2047  2091  2094      1
  2048  2092  2095      1
  2049  2092  2096      1
  2050  2092  2097      1
  2051  2093  2098      1
  2052  2093  2099      1
  2053  2093  2100      1
  2054  2094  2101      1
  2055  2101  2102      1
  2056  2101  2103      1
  2057  2101  2104      1
  2058  2102  2105      1
  2059  2102  2106      1
  2060  2102  2107      1
  2061  2103  2108      1
  2062  2103  2109      1
  2063  2103  2110      1
  2064  2104  2111      1
  2065  2111  2112      1
  2066  2111  2113      1
  2067  2111  2114      1
  2068  2112  2115      1
  2069  2112  2116      1
  2070  2112  2117      1
  2071  2113  2118      1
  2072  2113  2119      1
  2073  2113  2120      1
  2074  2114  2121      1
  2075  2121  2122      1
  2076  2121  2123      1
  2077  2121  2124      1
  2078  2122  2125      1
  2079  2122  2126      1
  2080  2122  2127      1
  2081  2123  2128      1
  2082  2123  2129      1
  2083  2123  2130      1
  2084  2131  2132      1
  2085  2131  2133      1
  2086  2131  2134      1
  2087  2132  2135      1
  2088  2132  2136      1
  2089  2132  2137      1
  2090  2133  2138      1
  2091  2133  2139      1
  2092  2133  2140      1
  2093  2134  2141      1
  2094  2141  2142      1
  2095  2141  2143      1
  2096  2141  2144      1
  2097  2142  2145      1
  2098  2142  2146      1
  2099  2142  2147      1
  2100  2143  2148      1
  2101  2143  2149      1
  2102  2143  2150      1
  2103  2144  2151      1
  2104  2151  2152      1
  2105  2151  2153      1
  2106  2151  2154      1
  2107  2152  2155      1
  2108  2152  2156      1
  2109  2152  2157      1
  2110  2153  2158      1
  2111  2153  2159      1
  2112  2153  2160      1
  2113  2154  2161      1
  2114  2161  2162      1
  2115  2161  2163      1
  2116  2161  2164      1
  2117  2162  2165      1
  2118  2162  2166      1
  2119  2162  2167      1
  2120  2163  2168      1
  2121  2163  2169      1
  2122  2163  2170      1
  2123  2164  2171      1
  2124  2171  2172      1
  2125  2171  2173      1
  2126  2171  2174      1
  2127  2172  2175      1
  2128  2172  2176      1
  2129  2172  2177      1
  2130  2173  2178      1
  2131  2173  2179      1
  2132  2173  2180      1
  2133  2174  2181      1
  2134  2181  2182      1
  2135  2181  2183      1
  2136  2181  2184      1
  2137  2182  2185      1
  2138  2182  2186      1
  2139  2182  2187      1
  2140  2183  2188      1
  2141  2183  2189      1
  2142  2183  2190      1
  2143  2184  2191      1
  2144  2191  2192      1
  2145  2191  2193      1
  2146  2191  2194      1
  2147  2192  2195      1
  2148  2192  2196      1
  2149  2192  2197      1
  2150  2193  2198      1
  2151  2193  2199      1
  2152  2193  2200      1
  2153  2194  2201      1
  2154  2201  2202      1
  2155  2201  2203      1
  2156  2201  2204      1
  2157  2202  2205      1
  2158  2202  2206      1
  2159  2202  2207      1
  2160  2203  2208      1
  2161  2203  2209      1
  2162  2203  2210      1
  2163  2204  2211      1
  2164  2211  2212      1
  2165  2211  2213      1
  2166  2211  2214      1
  2167  2212  2215      1
  2168  2212  2216      1
  2169  2212  2217      1
  2170  2213  2218      1
  2171  2213  2219      1
  2172  2213  2220      1
  2173  2214  2221      1
  2174  2221  2222      1
  2175  2221  2223      1
  2176  2221  2224      1
  2177  2222  2225      1
  2178  2222  2226      1
  2179  2222  2227      1
  2180  2223  2228      1
  2181  2223  2229      1
  2182  2223  2230      1
  2183  2224  2231      1
  2184  2231  2232      1
  2185  2231  2233      1
  2186  2231  2234      1
  2187  2232  2235      1
  2188  2232  2236      1
  2189  2232  2237      1
  2190  2233  2238      1
  2191  2233  2239      1
  2192  2233  2240      1
  2193  2234  2241      1
  2194  2241  2242      1
  2195  2241  2243      1
  2196  2241  2244      1
  2197  2242  2245      1
  2198  2242  2246      1
  2199  2242  2247      1
  2200  2243  2248      1
  2201  2243  2249      1
  2202  2243  2250      1
  2203  2244  2251      1
  2204  2251  2252      1
  2205  2251  2253      1
  2206  2251  2254      1
  2207  2252  2255      1
  2208  2252  2256      1
  2209  2252  2257      1
  2210  2253  2258      1
  2211  2253  2259      1
  2212  2253  2260      1
  2213  2254  2261      1
  2214  2261  2262      1
  2215  2261  2263      1
  2216  2261  2264      1
  2217  2262  2265      1
  2218  2262  2266      1
  2219  2262  2267      1
  2220  2263  2268      1
  2221  2263  2269      1
  2222  2263  2270      1
  2223  2264  2271      1
  2224  2271  2272      1
  2225  2271  2273      1
  2226  2271  2274      1
  2227  2272  2275      1
  2228  2272  2276      1
  2229  2272  2277      1
  2230  2273  2278      1
  2231  2273  2279      1
  2232  2273  2280      1
  2233  2281  2282      1
  2234  2281  2283      1
  2235  2281  2284      1
  2236  2282  2285      1
  2237  2282  2286      1
  2238  2282  2287      1
  2239  2283  2288      1
  2240  2283  2289      1
  2241  2283  2290      1
  2242  2284  2291      1
  2243  2291  2292      1
  2244  2291  2293      1
  2245  2291  2294      1
  2246  2292  2295      1
  2247  2292  2296      1
  2248  2292  2297      1
  2249  2293  2298      1
  2250  2293  2299      1
  2251  2293  2300      1
  2252  2294  2301      1
  2253  2301  2302      1
  2254  2301  2303      1
  2255  2301  2304      1
  2256  2302  2305      1
  2257  2302  2306      1
  2258  2302  2307      1
  2259  2303  2308      1
  2260  2303  2309      1
  2261  2303  2310      1
  2262  2304  2311      1
  2263  2311  2312      1
  2264  2311  2313      1
  2265  2311  2314      1
  2266  2312  2315      1
  2267  2312  2316      1
  2268  2312  2317      1
  2269  2313  2318      1
  2270  2313  2319      1
  2271  2313  2320      1
  2272  2314  2321      1
  2273  2321  2322      1
  2274  2321  2323      1
  2275  2321  2324      1
  2276  2322  2325      1
  2277  2322  2326      1
  2278  2322  2327      1
  2279  2323  2328      1
  2280  2323  2329      1
  2281  2323  2330      1
  2282  2324  2331      1
  2283  2331  2332      1
  2284  2331  2333      1
  2285  2331  2334      1
  2286  2332  2335      1
  2287  2332  2336      1
  2288  2332  2337      1
  2289  2333  2338      1
  2290  2333  2339      1
  2291  2333  2340      1
  2292  2334  2341      1
  2293  2341  2342      1
  2294  2341  2343      1
  2295  2341  2344      1
  2296  2342  2345      1
  2297  2342  2346      1
  2298  2342  2347      1
  2299  2343  2348      1
  2300  2343  2349      1
  2301  2343  2350      1
  2302  2344  2351      1
  2303  2351  2352      1
  2304  2351  2353      1
  2305  2351  2354      1
  2306  2352  2355      1
  2307  2352  2356      1
  2308  2352  2357      1
  2309  2353  2358      1
  2310  2353  2359      1
  2311  2353  2360      1
  2312  2354  2361      1
  2313  2361  2362      1
  2314  2361  2363      1
  2315  2361  2364      1
  2316  2362  2365      1
  2317  2362  2366      1
  2318  2362  2367      1
  2319  2363  2368      1
  2320  2363  2369      1
  2321  2363  2370      1
  2322  2364  2371      1
  2323  2371  2372      1
  2324  2371  2373      1
  2325  2371  2374      1
  2326  2372  2375      1
  2327  2372  2376      1
  2328  2372  2377      1
  2329  2373  2378      1
  2330  2373  2379      1
  2331  2373  2380      1
  2332  2374  2381      1
  2333  2381  2382      1
  2334  2381  2383      1
  2335  2381  2384      1
  2336  2382  2385      1
  2337  2382  2386      1
  2338  2382  2387      1
  2339  2383  2388      1
  2340  2383  2389      1
  2341  2383  2390      1
  2342  2384  2391      1
  2343  2391  2392      1
  2344  2391  2393      1
  2345  2391  2394      1
  2346  2392  2395      1
  2347  2392  2396      1
  2348  2392  2397      1
  2349  2393  2398      1
  2350  2393  2399      1
  2351  2393  2400      1
  2352  2394  2401      1
  2353  2401  2402      1
  2354  2401  2403      1
  2355  2401  2404      1
  2356  2402  2405      1
  2357  2402  2406      1
  2358  2402  2407      1
  2359  2403  2408      1
  2360  2403  2409      1
  2361  2403  2410      1
  2362  2404  2411      1
  2363  2411  2412      1
  2364  2411  2413      1
  2365  2411  2414      1
  2366  2412  2415      1
  2367  2412  2416      1
  2368  2412  2417      1
  2369  2413  2418      1
  2370  2413  2419      1
  2371  2413  2420      1
  2372  2414  2421      1
  2373  2421  2422      1
  2374  2421  2423      1
  2375  2421  2424      1
  2376  2422  2425      1
  2377  2422  2426      1
  2378  2422  2427      1
  2379  2423  2428      1
  2380  2423  2429      1
  2381  2423  2430      1
  2382  2424  2431      1
  2383  2431  2432      1
  2384  2431  2433      1
  2385  2431  2434      1
  2386  2432  2435      1
  2387  2432  2436      1
  2388  2432  2437      1
  2389  2433  2438      1
  2390  2433  2439      1
  2391  2433  2440      1
  2392  2434  2441      1
  2393  2441  2442      1
  2394  2441  2443      1
  2395  2441  2444      1
  2396  2442  2445      1
  2397  2442  2446      1
  2398  2442  2447      1
  2399  2443  2448      1
  2400  2443  2449      1
  2401  2443  2450      1
  2402  2451  2452      1
  2403  2451  2453      1
  2404  2451  2454      1
  2405  2452  2455      1
  2406  2452  2456      1
  2407  2452  2457      1
  2408  2453  2458      1
  2409  2453  2459      1
  2410  2453  2460      1
  2411  2454  2461      1
  2412  2461  2462      1
  2413  2461  2463      1
  2414  2461  2464      1
  2415  2462  2465      1
  2416  2462  2466      1
  2417  2462  2467      1
  2418  2463  2468      1
  2419  2463  2469      1
  2420  2463  2470      1
  2421  2464  2471      1
  2422  2471  2472      1
  2423  2471  2473      1
  2424  2471  2474      1
  2425  2472  2475      1
  2426  2472  2476      1
  2427  2472  2477      1
  2428  2473  2478      1
  2429  2473  2479      1
  2430  2473  2480      1
  2431  2474  2481      1
  2432  2481  2482      1
  2433  2481  2483      1
  2434  2481  2484      1
  2435  2482  2485      1
  2436  2482  2486      1
  2437  2482  2487      1
  2438  2483  2488      1
  2439  2483  2489      1
  2440  2483  2490      1
  2441  2484  2491      1
  2442  2491  2492      1
  2443  2491  2493      1
  2444  2491  2494      1
  2445  2492  2495      1
  2446  2492  2496      1
  2447  2492  2497      1
  2448  2493  2498      1
  2449  2493  2499      1
  2450  2493  2500      1
  2451  2494  2501      1
  2452  2501  2502      1
  2453  2501  2503      1
  2454  2501  2504      1
  2455  2502  2505      1
  2456  2502  2506      1
  2457  2502  2507      1
  2458  2503  2508      1
  2459  2503  2509      1
  2460  2503  2510      1
  2461  2504  2511      1
  2462  2511  2512      1
  2463  2511  2513      1
  2464  2511  2514      1
  2465  2512  2515      1
  2466  2512  2516      1
  2467  2512  2517      1
  2468  2513  2518      1
  2469  2513  2519      1
  2470  2513  2520      1
  2471  2514  2521      1
  2472  2521  2522      1
  2473  2521  2523      1
  2474  2521  2524      1
  2475  2522  2525      1
  2476  2522  2526      1
  2477  2522  2527      1
  2478  2523  2528      1
  2479  2523  2529      1
  2480  2523  2530      1
  2481  2524  2531      1
  2482  2531  2532      1
  2483  2531  2533      1
  2484  2531  2534      1
  2485  2532  2535      1
  2486  2532  2536      1
  2487  2532  2537      1
  2488  2533  2538      1
  2489  2533  2539      1
  2490  2533  2540      1
  2491  2534  2541      1
  2492  2541  2542      1
  2493  2541  2543      1
  2494  2541  2544      1
  2495  2542  2545      1
  2496  2542  2546      1
  2497  2542  2547      1
  2498  2543  2548      1
  2499  2543  2549      1
  2500  2543  2550      1
  2501  2544  2551      1
  2502  2551  2552      1
  2503  2551  2553      1
  2504  2551  2554      1
  2505  2552  2555      1
  2506  2552  2556      1
  2507  2552  2557      1
  2508  2553  2558      1
  2509  2553  2559      1
  2510  2553  2560      1
  2511  2554  2561      1
  2512  2561  2562      1
  2513  2561  2563      1
  2514  2561  2564      1
  2515  2562  2565      1
  2516  2562  2566      1
  2517  2562  2567      1
  2518  2563  2568      1
  2519  2563  2569      1
  2520  2563  2570      1
  2521  2564  2571      1
  2522  2571  2572      1
  2523  2571  2573      1
  2524  2571  2574      1
  2525  2572  2575      1
  2526  2572  2576      1
  2527  2572  2577      1
  2528  2573  2578      1
  2529  2573  2579      1
  2530  2573  2580      1
  2531  2574  2581      1
  2532  2581  2582      1
  2533  2581  2583      1
  2534  2581  2584      1
  2535  2582  2585      1
  2536  2582  2586      1
  2537  2582  2587      1
  2538  2583  2588      1
  2539  2583  2589      1
  2540  2583  2590      1
  2541  2591  2592      1
  2542  2591  2593      1
  2543  2591  2594      1
  2544  2592  2595      1
  2545  2592  2596      1
  2546  2592  2597      1
  2547  2593  2598      1
  2548  2593  2599      1
  2549  2593  2600      1
  2550  2594  2601      1
  2551  2601  2602      1
  2552  2601  2603      1
  2553  2601  2604      1
  2554  2602  2605      1
  2555  2602  2606      1
  2556  2602  2607      1
  2557  2603  2608      1
  2558  2603  2609      1
  2559  2603  2610      1
  2560  2604  2611      1
  2561  2611  2612      1
  2562  2611  2613      1
  2563  2611  2614      1
  2564  2612  2615      1
  2565  2612  2616      1
  2566  2612  2617      1
  2567  2613  2618      1
  2568  2613  2619      1
  2569  2613  2620      1
  2570  2614  2621      1
  2571  2621  2622      1
  2572  2621  2623      1
  2573  2621  2624      1
  2574  2622  2625      1
  2575  2622  2626      1
  2576  2622  2627      1
  2577  2623  2628      1
  2578  2623  2629      1
  2579  2623  2630      1
  2580  2624  2631      1
  2581  2631  2632      1
  2582  2631  2633      1
  2583  2631  2634      1
  2584  2632  2635      1
  2585  2632  2636      1
  2586  2632  2637      1
  2587  2633  2638      1
  2588  2633  2639      1
  2589  2633  2640      1
  2590  2634  2641      1
  2591  2641  2642      1
  2592  2641  2643      1
  2593  2641  2644      1
  2594  2642  2645      1
  2595  2642  2646      1
  2596  2642  2647      1
  2597  2643  2648      1
  2598  2643  2649      1
  2599  2643  2650      1
  2600  2644  2651      1
  2601  2651  2652      1
  2602  2651  2653      1
  2603  2651  2654      1
  2604  2652  2655      1
  2605  2652  2656      1
  2606  2652  2657      1
  2607  2653  2658      1
  2608  2653  2659      1
  2609  2653  2660      1
  2610  2654  2661      1
  2611  2661  2662      1
  2612  2661  2663      1
  2613  2661  2664      1
  2614  2662  2665      1
  2615  2662  2666      1
  2616  2662  2667      1
  2617  2663  2668      1
  2618  2663  2669      1
  2619  2663  2670      1
  2620  2664  2671      1
  2621  2671  2672      1
  2622  2671  2673      1
  2623  2671  2674      1
  2624  2672  2675      1
  2625  2672  2676      1
  2626  2672  2677      1
  2627  2673  2678      1
  2628  2673  2679      1
  2629  2673  2680      1
  2630  2674  2681      1
  2631  2681  2682      1
  2632  2681  2683      1
  2633  2681  2684      1
  2634  2682  2685      1
  2635  2682  2686      1
  2636  2682  2687      1
  2637  2683  2688      1
  2638  2683  2689      1
  2639  2683  2690      1
  2640  2684  2691      1
  2641  2691  2692      1
  2642  2691  2693      1
  2643  2691  2694      1
  2644  2692  2695      1
  2645  2692  2696      1
  2646  2692  2697      1
  2647  2693  2698      1
  2648  2693  2699      1
  2649  2693  2700      1
  2650  2694  2701      1
  2651  2701  2702      1
  2652  2701  2703      1
  2653  2701  2704      1
  2654  2702  2705      1
  2655  2702  2706      1
  2656  2702  2707      1
  2657  2703  2708      1
  2658  2703  2709      1
  2659  2703  2710      1
  2660  2704  2711      1
  2661  2711  2712      1
  2662  2711  2713      1
  2663  2711  2714      1
  2664  2712  2715      1
  2665  2712  2716      1
  2666  2712  2717      1
  2667  2713  2718      1
  2668  2713  2719      1
  2669  2713  2720      1
  2670  2714  2721      1
  2671  2721  2722      1
  2672  2721  2723      1
  2673  2721  2724      1
  2674  2722  2725      1
  2675  2722  2726      1
  2676  2722  2727      1
  2677  2723  2728      1
  2678  2723  2729      1
  2679  2723  2730      1
  2680  2724  2731      1
  2681  2731  2732      1
  2682  2731  2733      1
  2683  2731  2734      1
  2684  2732  2735      1
  2685  2732  2736      1
  2686  2732  2737      1
  2687  2733  2738      1
  2688  2733  2739      1
  2689  2733  2740      1
  2690  2734  2741      1
  2691  2741  2742      1
  2692  2741  2743      1
  2693  2741  2744      1
  2694  2742  2745      1
  2695  2742  2746      1
  2696  2742  2747      1
  2697  2743  2748      1
  2698  2743  2749      1
  2699  2743  2750      1
  2700  2744  2751      1
  2701  2751  2752      1
  2702  2751  2753      1
  2703  2751  2754      1
  2704  2752  2755      1
  2705  2752  2756      1
  2706  2752  2757      1
  2707  2753  2758      1
  2708  2753  2759      1
  2709  2753  2760      1
  2710  2754  2761      1
  2711  2761  2762      1
  2712  2761  2763      1
  2713  2761  2764      1
  2714  2762  2765      1
  2715  2762  2766      1
  2716  2762  2767      1
  2717  2763  2768      1
  2718  2763  2769      1
  2719  2763  2770      1
  2720  2771  2772      1
  2721  2771  2773      1
  2722  2771  2774      1
  2723  2772  2775      1
  2724  2772  2776      1
  2725  2772  2777      1
  2726  2773  2778      1
  2727  2773  2779      1
  2728  2773  2780      1
  2729  2774  2781      1
  2730  2781  2782      1
  2731  2781  2783      1
  2732  2781  2784      1
  2733  2782  2785      1
  2734  2782  2786      1
  2735  2782  2787      1
  2736  2783  2788      1
  2737  2783  2789      1
  2738  2783  2790      1
  2739  2784  2791      1
  2740  2791  2792      1
  2741  2791  2793      1
  2742  2791  2794      1
  2743  2792  2795      1
  2744  2792  2796      1
  2745  2792  2797      1
  2746  2793  2798      1
  2747  2793  2799      1
  2748  2793  2800      1
  2749  2794  2801      1
  2750  2801  2802      1
  2751  2801  2803      1
  2752  2801  2804      1
  2753  2802  2805      1
  2754  2802  2806      1
  2755  2802  2807      1
  2756  2803  2808      1
  2757  2803  2809      1
  2758  2803  2810      1
  2759  2804  2811      1
  2760  2811  2812      1
  2761  2811  2813      1
  2762  2811  2814      1
  2763  2812  2815      1
  2764  2812  2816      1
  2765  2812  2817      1
  2766  2813  2818      1
  2767  2813  2819      1
  2768  2813  2820      1
  2769  2814  2821      1
  2770  2821  2822      1
  2771  2821  2823      1
  2772  2821  2824      1
  2773  2822  2825      1
  2774  2822  2826      1
  2775  2822  2827      1
  2776  2823  2828      1
  2777  2823  2829      1
  2778  2823  2830      1
  2779  2824  2831      1
  2780  2831  2832      1
  2781  2831  2833      1
  2782  2831  2834      1
  2783  2832  2835      1
  2784  2832  2836      1
  2785  2832  2837      1
  2786  2833  2838      1
  2787  2833  2839      1
  2788  2833  2840      1
  2789  2834  2841      1
  2790  2841  2842      1
  2791  2841  2843      1
  2792  2841  2844      1
  2793  2842  2845      1
  2794  2842  2846      1
  2795  2842  2847      1
  2796  2843  2848      1
  2797  2843  2849      1
  2798  2843  2850      1
  2799  2844  2851      1
  2800  2851  2852      1
  2801  2851  2853      1
  2802  2851  2854      1
  2803  2852  2855      1
  2804  2852  2856      1
  2805  2852  2857      1
  2806  2853  2858      1
  2807  2853  2859      1
  2808  2853  2860      1
  2809  2854  2861      1
  2810  2861  2862      1
  2811  2861  2863      1
  2812  2861  2864      1
  2813  2862  2865      1
  2814  2862  2866      1
  2815  2862  2867      1
  2816  2863  2868      1
  2817  2863  2869      1
  2818  2863  2870      1
  2819  2864  2871      1
  2820  2871  2872      1
  2821  2871  2873      1
  2822  2871  2874      1
  2823  2872  2875      1
  2824  2872  2876      1
  2825  2872  2877      1
  2826  2873  2878      1
  2827  2873  2879      1
  2828  2873  2880      1
  2829  2874  2881      1
  2830  2881  2882      1
  2831  2881  2883      1
  2832  2881  2884      1
  2833  2882  2885      1
  2834  2882  2886      1
  2835  2882  2887      1
  2836  2883  2888      1
  2837  2883  2889      1
  2838  2883  2890      1
  2839  2884  2891      1
  2840  2891  2892      1
  2841  2891  2893      1
  2842  2891  2894      1
  2843  2892  2895      1
  2844  2892  2896      1
  2845  2892  2897      1
  2846  2893  2898      1
  2847  2893  2899      1
  2848  2893  2900      1
  2849  2894  2901      1
  2850  2901  2902      1
  2851  2901  2903      1
  2852  2901  2904      1
  2853  2902  2905      1
  2854  2902  2906      1
  2855  2902  2907      1
  2856  2903  2908      1
  2857  2903  2909      1
  2858  2903  2910      1
  2859  2904  2911      1
  2860  2911  2912      1
  2861  2911  2913      1
  2862  2911  2914      1
  2863  2912  2915      1
  2864  2912  2916      1
  2865  2912  2917      1
  2866  2913  2918      1
  2867  2913  2919      1
  2868  2913  2920      1
  2869  2921  2922      1
  2870  2921  2923      1
  2871  2921  2924      1
  2872  2922  2925      1
  2873  2922  2926      1
  2874  2922  2927      1
  2875  2923  2928      1
  2876  2923  2929      1
  2877  2923  2930      1
  2878  2924  2931      1
  2879  2931  2932      1
  2880  2931  2933      1
  2881  2931  2934      1
  2882  2932  2935      1
  2883  2932  2936      1
  2884  2932  2937      1
  2885  2933  2938      1
  2886  2933  2939      1
  2887  2933  2940      1
  2888  2934  2941      1
  2889  2941  2942      1
  2890  2941  2943      1
  2891  2941  2944      1
  2892  2942  2945      1
  2893  2942  2946      1
  2894  2942  2947      1
  2895  2943  2948      1
  2896  2943  2949      1
  2897  2943  2950      1
  2898  2944  2951      1
  2899  2951  2952      1
  2900  2951  2953      1
  2901  2951  2954      1
  2902  2952  2955      1
  2903  2952  2956      1
  2904  2952  2957      1
  2905  2953  2958      1
  2906  2953  2959      1
  2907  2953  2960      1
  2908  2954  2961      1
  2909  2961  2962      1
  2910  2961  2963      1
  2911  2961  2964      1
  2912  2962  2965      1
  2913  2962  2966      1
  2914  2962  2967      1
  2915  2963  2968      1
  2916  2963  2969      1
  2917  2963  2970      1
  2918  2964  2971      1
  2919  2971  2972      1
  2920  2971  2973      1
  2921  2971  2974      1
  2922  2972  2975      1
  2923  2972  2976      1
  2924  2972  2977      1
  2925  2973  2978      1
  2926  2973  2979      1
  2927  2973  2980      1
  2928  2974  2981      1
  2929  2981  2982      1
  2930  2981  2983      1
  2931  2981  2984      1
  2932  2982  2985      1
  2933  2982  2986      1
  2934  2982  2987      1
  2935  2983  2988      1
  2936  2983  2989      1
  2937  2983  2990      1
  2938  2984  2991      1
  2939  2991  2992      1
  2940  2991  2993      1
  2941  2991  2994      1
  2942  2992  2995      1
  2943  2992  2996      1
  2944  2992  2997      1
  2945  2993  2998      1
  2946  2993  2999      1
  2947  2993  3000      1
  2948  2994  3001      1
  2949  3001  3002      1
  2950  3001  3003      1
  2951  3001  3004      1
  2952  3002  3005      1
  2953  3002  3006      1
  2954  3002  3007      1
  2955  3003  3008      1
  2956  3003  3009      1
  2957  3003  3010      1
  2958  3004  3011      1
  2959  3011  3012      1
  2960  3011  3013      1
  2961  3011  3014      1
  2962  3012  3015      1
  2963  3012  3016      1
  2964  3012  3017      1
  2965  3013  3018      1
  2966  3013  3019      1
  2967  3013  3020      1
  2968  3014  3021      1
  2969  3021  3022      1
  2970  3021  3023      1
  2971  3021  3024      1
  2972  3022  3025      1
  2973  3022  3026      1
  2974  3022  3027      1
  2975  3023  3028      1
  2976  3023  3029      1
  2977  3023  3030      1
  2978  3024  3031      1
  2979  3031  3032      1
  2980  3031  3033      1
  2981  3031  3034      1
  2982  3032  3035      1
  2983  3032  3036      1
  2984  3032  3037      1
  2985  3033  3038      1
  2986  3033  3039      1
  2987  3033  3040      1
  2988  3034  3041      1
  2989  3041  3042      1
  2990  3041  3043      1
  2991  3041  3044      1
  2992  3042  3045      1
  2993  3042  3046      1
  2994  3042  3047      1
  2995  3043  3048      1
  2996  3043  3049      1
  2997  3043  3050      1
  2998  3044  3051      1
  2999  3051  3052      1
  3000  3051  3053      1
  3001  3051  3054      1
  3002  3052  3055      1
  3003  3052  3056      1
  3004  3052  3057      1
  3005  3053  3058      1
  3006  3053  3059      1
  3007  3053  3060      1
  3008  3054  3061      1
  3009  3061  3062      1
  3010  3061  3063      1
  3011  3061  3064      1
  3012  3062  3065      1
  3013  3062  3066      1
  3014  3062  3067      1
  3015  3063  3068      1
  3016  3063  3069      1
  3017  3063  3070      1
  3018  3071  3072      1
  3019  3071  3073      1
  3020  3071  3074      1
  3021  3072  3075      1
  3022  3072  3076      1
  3023  3072  3077      1
  3024  3073  3078      1
  3025  3073  3079      1
  3026  3073  3080      1
  3027  3074  3081      1
  3028  3081  3082      1
  3029  3081  3083      1
  3030  3081  3084      1
  3031  3082  3085      1
  3032  3082  3086      1
  3033  3082  3087      1
  3034  3083  3088      1
  3035  3083  3089      1
  3036  3083  3090      1
  3037  3084  3091      1
  3038  3091  3092      1
  3039  3091  3093      1
  3040  3091  3094      1
  3041  3092  3095      1
  3042  3092  3096      1
  3043  3092  3097      1
  3044  3093  3098      1
  3045  3093  3099      1
  3046  3093  3100      1
  3047  3094  3101      1
  3048  3101  3102      1
  3049  3101  3103      1
  3050  3101  3104      1
  3051  3102  3105      1
  3052  3102  3106      1
  3053  3102  3107      1
  3054  3103  3108      1
  3055  3103  3109      1
  3056  3103  3110      1
  3057  3104  3111      1
  3058  3111  3112      1
  3059  3111  3113      1
  3060  3111  3114      1
  3061  3112  3115      1
  3062  3112  3116      1
  3063  3112  3117      1
  3064  3113  3118      1
  3065  3113  3119      1
  3066  3113  3120      1
  3067  3114  3121      1
  3068  3121  3122      1
  3069  3121  3123      1
  3070  3121  3124      1
  3071  3122  3125      1
  3072  3122  3126      1
  3073  3122  3127      1
  3074  3123  3128      1
  3075  3123  3129      1
  3076  3123  3130      1
  3077  3124  3131      1
  3078  3131  3132      1
  3079  3131  3133      1
  3080  3131  3134      1
  3081  3132  3135      1
  3082  3132  3136      1
  3083  3132  3137      1
  3084  3133  3138      1
  3085  3133  3139      1
  3086  3133  3140      1
  3087  3134  3141      1
  3088  3141  3142      1
  3089  3141  3143      1
  3090  3141  3144      1
  3091  3142  3145      1
  3092  3142  3146      1
  3093  3142  3147      1
  3094  3143  3148      1
  3095  3143  3149      1
  3096  3143  3150      1
  3097  3144  3151      1
  3098  3151  3152      1
  3099  3151  3153      1
  3100  3151  3154      1
  3101  3152  3155      1
  3102  3152  3156      1
  3103  3152  3157      1
  3104  3153  3158      1
  3105  3153  3159      1
  3106  3153  3160      1
  3107  3154  3161      1
  3108  3161  3162      1
  3109  3161  3163      1
  3110  3161  3164      1
  3111  3162  3165      1
  3112  3162  3166      1
  3113  3162  3167      1
  3114  3163  3168      1
  3115  3163  3169      1
  3116  3163  3170      1
  3117  3164  3171      1
  3118  3171  3172      1
  3119  3171  3173      1
  3120  3171  3174      1
  3121  3172  3175      1
  3122  3172  3176      1
  3123  3172  3177      1
  3124  3173  3178      1
  3125  3173  3179      1
  3126  3173  3180      1
  3127  3174  3181      1
  3128  3181  3182      1
  3129  3181  3183      1
  3130  3181  3184      1
  3131  3182  3185      1
  3132  3182  3186      1
  3133  3182  3187      1
  3134  3183  3188      1
  3135  3183  3189      1
  3136  3183  3190      1
  3137  3184  3191      1
  3138  3191  3192      1
  3139  3191  3193      1
  3140  3191  3194      1
  3141  3192  3195      1
  3142  3192  3196      1
  3143  3192  3197      1
  3144  3193  3198      1
  3145  3193  3199      1
  3146  3193  3200      1
  3147  3194  3201      1
  3148  3201  3202      1
  3149  3201  3203      1
  3150  3201  3204      1
  3151  3202  3205      1
  3152  3202  3206      1
  3153  3202  3207      1
  3154  3203  3208      1
  3155  3203  3209      1
  3156  3203  3210      1
  3157  3204  3211      1
  3158  3211  3212      1
  3159  3211  3213      1
  3160  3211  3214      1
  3161  3212  3215      1
  3162  3212  3216      1
  3163  3212  3217      1
  3164  3213  3218      1
  3165  3213  3219      1
  3166  3213  3220      1
  3167  3214  3221      1
  3168  3221  3222      1
  3169  3221  3223      1
  3170  3221  3224      1
  3171  3222  3225      1
  3172  3222  3226      1
  3173  3222  3227      1
  3174  3223  3228      1
  3175  3223  3229      1
  3176  3223  3230      1
  3177  3231  3232      1
  3178  3231  3233      1
  3179  3231  3234      1
  3180  3232  3235      1
  3181  3232  3236      1
  3182  3232  3237      1
  3183  3233  3238      1
  3184  3233  3239      1
  3185  3233  3240      1
  3186  3234  3241      1
  3187  3241  3242      1
  3188  3241  3243      1
  3189  3241  3244      1
  3190  3242  3245      1
  3191  3242  3246      1
  3192  3242  3247      1
  3193  3243  3248      1
  3194  3243  3249      1
  3195  3243  3250      1
  3196  3244  3251      1
  3197  3251  3252      1
  3198  3251  3253      1
  3199  3251  3254      1
  3200  3252  3255      1
  3201  3252  3256      1
  3202  3252  3257      1
  3203  3253  3258      1
  3204  3253  3259      1
  3205  3253  3260      1
  3206  3254  3261      1
  3207  3261  3262      1
  3208  3261  3263      1
  3209  3261  3264      1
  3210  3262  3265      1
  3211  3262  3266      1
  3212  3262  3267      1
  3213  3263  3268      1
  3214  3263  3269      1
  3215  3263  3270      1
  3216  3264  3271      1
  3217  3271  3272      1
  3218  3271  3273      1
  3219  3271  3274      1
  3220  3272  3275      1
  3221  3272  3276      1
  3222  3272  3277      1
  3223  3273  3278      1
  3224  3273  3279      1
  3225  3273  3280      1
  3226  3274  3281      1
  3227  3281  3282      1
  3228  3281  3283      1
  3229  3281  3284      1
  3230  3282  3285      1
  3231  3282  3286      1
  3232  3282  3287      1
  3233  3283  3288      1
  3234  3283  3289      1
  3235  3283  3290      1
  3236  3284  3291      1
  3237  3291  3292      1
  3238  3291  3293      1
  3239  3291  3294      1
  3240  3292  3295      1
  3241  3292  3296      1
  3242  3292  3297      1
  3243  3293  3298      1
  3244  3293  3299      1
  3245  3293  3300      1
  3246  3294  3301      1
  3247  3301  3302      1
  3248  3301  3303      1
  3249  3301  3304      1
  3250  3302  3305      1
  3251  3302  3306      1
  3252  3302  3307      1
  3253  3303  3308      1
  3254  3303  3309      1
  3255  3303  3310      1
  3256  3304  3311      1
  3257  3311  3312      1
  3258  3311  3313      1
  3259  3311  3314      1
  3260  3312  3315      1
  3261  3312  3316      1
  3262  3312  3317      1
  3263  3313  3318      1
  3264  3313  3319      1
  3265  3313  3320      1
  3266  3314  3321      1
  3267  3321  3322      1
  3268  3321  3323      1
  3269  3321  3324      1
  3270  3322  3325      1
  3271  3322  3326      1
  3272  3322  3327      1
  3273  3323  3328      1
  3274  3323  3329      1
  3275  3323  3330      1
  3276  3324  3331      1
  3277  3331  3332      1
  3278  3331  3333      1
  3279  3331  3334      1
  3280  3332  3335      1
  3281  3332  3336      1
  3282  3332  3337      1
  3283  3333  3338      1
  3284  3333  3339      1
  3285  3333  3340      1
  3286  3334  3341      1
  3287  3341  3342      1
  3288  3341  3343      1
  3289  3341  3344      1
  3290  3342  3345      1
  3291  3342  3346      1
  3292  3342  3347      1
  3293  3343  3348      1
  3294  3343  3349      1
  3295  3343  3350      1
  3296  3344  3351      1
  3297  3351  3352      1
  3298  3351  3353      1
  3299  3351  3354      1
  3300  3352  3355      1
  3301  3352  3356      1
  3302  3352  3357      1
  3303  3353  3358      1
  3304  3353  3359      1
  3305  3353  3360      1
  3306  3354  3361      1
  3307  3361  3362      1
  3308  3361  3363      1
  3309  3361  3364      1
  3310  3362  3365      1
  3311  3362  3366      1
  3312  3362  3367      1
  3313  3363  3368      1
  3314  3363  3369      1
  3315  3363  3370      1
  3316  3364  3371      1
  3317  3371  3372      1
  3318  3371  3373      1
  3319  3371  3374      1
  3320  3372  3375      1
  3321  3372  3376      1
  3322  3372  3377      1
  3323  3373  3378      1
  3324  3373  3379      1
  3325  3373  3380      1
  3326  3374  3381      1
  3327  3381  3382      1
  3328  3381  3383      1
  3329  3381  3384      1
  3330  3382  3385      1
  3331  3382  3386      1
  3332  3382  3387      1
  3333  3383  3388      1
  3334  3383  3389      1
  3335  3383  3390      1
  3336  3384  3391      1
  3337  3391  3392      1
  3338  3391  3393      1
  3339  3391  3394      1
  3340  3392  3395      1
  3341  3392  3396      1
  3342  3392  3397      1
  3343  3393  3398      1
  3344  3393  3399      1
  3345  3393  3400      1
  3346  3394  3401      1
  3347  3401  3402      1
  3348  3401  3403      1
  3349  3401  3404      1
  3350  3402  3405      1
  3351  3402  3406      1
  3352  3402  3407      1
  3353  3403  3408      1
  3354  3403  3409      1
  3355  3403  3410      1
  3356  3404  3411      1
  3357  3411  3412      1
  3358  3411  3413      1
  3359  3411  3414      1
  3360  3412  3415      1
  3361  3412  3416      1
  3362  3412  3417      1
  3363  3413  3418      1
  3364  3413  3419      1
  3365  3413  3420      1
  3366  3414  3421      1
  3367  3421  3422      1
  3368  3421  3423      1
  3369  3421  3424      1
  3370  3422  3425      1
  3371  3422  3426      1
  3372  3422  3427      1
  3373  3423  3428      1
  3374  3423  3429      1
  3375  3423  3430      1
  3376  3431  3432      1
  3377  3431  3433      1
  3378  3431  3434      1
  3379  3432  3435      1
  3380  3432  3436      1
  3381  3432  3437      1
  3382  3433  3438      1
  3383  3433  3439      1
  3384  3433  3440      1
  3385  3434  3441      1
  3386  3441  3442      1
  3387  3441  3443      1
  3388  3441  3444      1
  3389  3442  3445      1
  3390  3442  3446      1
  3391  3442  3447      1
  3392  3443  3448      1
  3393  3443  3449      1
  3394  3443  3450      1
  3395  3444  3451      1
  3396  3451  3452      1
  3397  3451  3453      1
  3398  3451  3454      1
  3399  3452  3455      1
  3400  3452  3456      1
  3401  3452  3457      1
  3402  3453  3458      1
  3403  3453  3459      1
  3404  3453  3460      1
  3405  3454  3461      1
  3406  3461  3462      1
  3407  3461  3463      1
  3408  3461  3464      1
  3409  3462  3465      1
  3410  3462  3466      1
  3411  3462  3467      1
  3412  3463  3468      1
  3413  3463  3469      1
  3414  3463  3470      1
  3415  3464  3471      1
  3416  3471  3472      1
  3417  3471  3473      1
  3418  3471  3474      1
  3419  3472  3475      1
  3420  3472  3476      1
  3421  3472  3477      1
  3422  3473  3478      1
  3423  3473  3479      1
  3424  3473  3480      1
  3425  3474  3481      1
  3426  3481  3482      1
  3427  3481  3483      1
  3428  3481  3484      1
  3429  3482  3485      1
  3430  3482  3486      1
  3431  3482  3487      1
  3432  3483  3488      1
  3433  3483  3489      1
  3434  3483  3490      1
  3435  3484  3491      1
  3436  3491  3492      1
  3437  3491  3493      1
  3438  3491  3494      1
  3439  3492  3495      1
  3440  3492  3496      1
  3441  3492  3497      1
  3442  3493  3498      1
  3443  3493  3499      1
  3444  3493  3500      1
  3445  3494  3501      1
  3446  3501  3502      1
  3447  3501  3503      1
  3448  3501  3504      1
  3449  3502  3505      1
  3450  3502  3506      1
  3451  3502  3507      1
  3452  3503  3508      1
  3453  3503  3509      1
  3454  3503  3510      1
  3455  3504  3511      1
  3456  3511  3512      1
  3457  3511  3513      1
  3458  3511  3514      1
  3459  3512  3515      1
  3460  3512  3516      1
  3461  3512  3517      1
  3462  3513  3518      1
  3463  3513  3519      1
  3464  3513  3520      1
  3465  3514  3521      1
  3466  3521  3522      1
  3467  3521  3523      1
  3468  3521  3524      1
  3469  3522  3525      1
  3470  3522  3526      1
  3471  3522  3527      1
  3472  3523  3528      1
  3473  3523  3529      1
  3474  3523  3530      1
  3475  3524  3531      1
  3476  3531  3532      1
  3477  3531  3533      1
  3478  3531  3534      1
  3479  3532  3535      1
  3480  3532  3536      1
  3481  3532  3537      1
  3482  3533  3538      1
  3483  3533  3539      1
  3484  3533  3540      1
  3485  3534  3541      1
  3486  3541  3542      1
  3487  3541  3543      1
  3488  3541  3544      1
  3489  3542  3545      1
  3490  3542  3546      1
  3491  3542  3547      1
  3492  3543  3548      1
  3493  3543  3549      1
  3494  3543  3550      1
  3495  3544  3551      1
  3496  3551  3552      1
  3497  3551  3553      1
  3498  3551  3554      1
  3499  3552  3555      1
  3500  3552  3556      1
  3501  3552  3557      1
  3502  3553  3558      1
  3503  3553  3559      1
  3504  3553  3560      1
  3505  3554  3561      1
  3506  3561  3562      1
  3507  3561  3563      1
  3508  3561  3564      1
  3509  3562  3565      1
  3510  3562  3566      1
  3511  3562  3567      1
  3512  3563  3568      1
  3513  3563  3569      1
  3514  3563  3570      1
  3515  3564  3571      1
  3516  3571  3572      1
  3517  3571  3573      1
  3518  3571  3574      1
  3519  3572  3575      1
  3520  3572  3576      1
  3521  3572  3577      1
  3522  3573  3578      1
  3523  3573  3579      1
  3524  3573  3580      1
  3525  3574  3581      1
  3526  3581  3582      1
  3527  3581  3583      1
  3528  3581  3584      1
  3529  3582  3585      1
  3530  3582  3586      1
  3531  3582  3587      1
  3532  3583  3588      1
  3533  3583  3589      1
  3534  3583  3590      1
  3535  3584  3591      1
  3536  3591  3592      1
  3537  3591  3593      1
  3538  3591  3594      1
  3539  3592  3595      1
  3540  3592  3596      1
  3541  3592  3597      1
  3542  3593  3598      1
  3543  3593  3599      1
  3544  3593  3600      1
  3545  3601  3602      1
  3546  3601  3603      1
  3547  3601  3604      1
  3548  3602  3605      1
  3549  3602  3606      1
  3550  3602  3607      1
  3551  3603  3608      1
  3552  3603  3609      1
  3553  3603  3610      1
  3554  3604  3611      1
  3555  3611  3612      1
  3556  3611  3613      1
  3557  3611  3614      1
  3558  3612  3615      1
  3559  3612  3616      1
  3560  3612  3617      1
  3561  3613  3618      1
  3562  3613  3619      1
  3563  3613  3620      1
  3564  3614  3621      1
  3565  3621  3622      1
  3566  3621  3623      1
  3567  3621  3624      1
  3568  3622  3625      1
  3569  3622  3626      1
  3570  3622  3627      1
  3571  3623  3628      1
  3572  3623  3629      1
  3573  3623  3630      1
  3574  3624  3631      1
  3575  3631  3632      1
  3576  3631  3633      1
  3577  3631  3634      1
  3578  3632  3635      1
  3579  3632  3636      1
  3580  3632  3637      1
  3581  3633  3638      1
  3582  3633  3639      1
  3583  3633  3640      1
  3584  3634  3641      1
  3585  3641  3642      1
  3586  3641  3643      1
  3587  3641  3644      1
  3588  3642  3645      1
  3589  3642  3646      1
  3590  3642  3647      1
  3591  3643  3648      1
  3592  3643  3649      1
  3593  3643  3650      1
  3594  3644  3651      1
  3595  3651  3652      1
  3596  3651  3653      1
  3597  3651  3654      1
  3598  3652  3655      1
  3599  3652  3656      1
  3600  3652  3657      1
  3601  3653  3658      1
  3602  3653  3659      1
  3603  3653  3660      1
  3604  3654  3661      1
  3605  3661  3662      1
  3606  3661  3663      1
  3607  3661  3664      1
  3608  3662  3665      1
  3609  3662  3666      1
  3610  3662  3667      1
  3611  3663  3668      1
  3612  3663  3669      1
  3613  3663  3670      1
  3614  3664  3671      1
  3615  3671  3672      1
  3616  3671  3673      1
  3617  3671  3674      1
  3618  3672  3675      1
  3619  3672  3676      1
  3620  3672  3677      1
  3621  3673  3678      1
  3622  3673  3679      1
  3623  3673  3680      1
  3624  3674  3681      1
  3625  3681  3682      1
  3626  3681  3683      1
  3627  3681  3684      1
  3628  3682  3685      1
  3629  3682  3686      1
  3630  3682  3687      1
  3631  3683  3688      1
  3632  3683  3689      1
  3633  3683  3690      1
  3634  3684  3691      1
  3635  3691  3692      1
  3636  3691  3693      1
  3637  3691  3694      1
  3638  3692  3695      1
  3639  3692  3696      1
  3640  3692  3697      1
  3641  3693  3698      1
  3642  3693  3699      1
  3643  3693  3700      1
  3644  3694  3701      1
  3645  3701  3702      1
  3646  3701  3703      1
  3647  3701  3704      1
  3648  3702  3705      1
  3649  3702  3706      1
  3650  3702  3707      1
  3651  3703  3708      1
  3652  3703  3709      1
  3653  3703  3710      1
  3654  3704  3711      1
  3655  3711  3712      1
  3656  3711  3713      1
  3657  3711  3714      1
  3658  3712  3715      1
  3659  3712  3716      1
  3660  3712  3717      1
  3661  3713  3718      1
  3662  3713  3719      1
  3663  3713  3720      1
  3664  3714  3721      1
  3665  3721  3722      1
  3666  3721  3723      1
  3667  3721  3724      1
  3668  3722  3725      1
  3669  3722  3726      1
  3670  3722  3727      1
  3671  3723  3728      1
  3672  3723  3729      1
  3673  3723  3730      1
  3674  3724  3731      1
  3675  3731  3732      1
  3676  3731  3733      1
  3677  3731  3734      1
  3678  3732  3735      1
  3679  3732  3736      1
  3680  3732  3737      1
  3681  3733  3738      1
  3682  3733  3739      1
  3683  3733  3740      1
  3684  3741  3742      1
  3685  3741  3743      1
  3686  3741  3744      1
  3687  3742  3745      1
  3688  3742  3746      1
  3689  3742  3747      1
  3690  3743  3748      1
  3691  3743  3749      1
  3692  3743  3750      1
  3693  3744  3751      1
  3694  3751  3752      1
  3695  3751  3753      1
  3696  3751  3754      1
  3697  3752  3755      1
  3698  3752  3756      1
  3699  3752  3757      1
  3700  3753  3758      1
  3701  3753  3759      1
  3702  3753  3760      1
  3703  3754  3761      1
  3704  3761  3762      1
  3705  3761  3763      1
  3706  3761  3764      1
  3707  3762  3765      1
  3708  3762  3766      1
  3709  3762  3767      1
  3710  3763  3768      1
  3711  3763  3769      1
  3712  3763  3770      1
  3713  3764  3771      1
  3714  3771  3772      1
  3715  3771  3773      1
  3716  3771  3774      1
  3717  3772  3775      1
  3718  3772  3776      1
  3719  3772  3777      1
  3720  3773  3778      1
  3721  3773  3779      1
  3722  3773  3780      1
  3723  3774  3781      1
  3724  3781  3782      1
  3725  3781  3783      1
  3726  3781  3784      1
  3727  3782  3785      1
  3728  3782  3786      1
  3729  3782  3787      1
  3730  3783  3788      1
  3731  3783  3789      1
  3732  3783  3790      1
  3733  3784  3791      1
  3734  3791  3792      1
  3735  3791  3793      1
  3736  3791  3794      1
  3737  3792  3795      1
  3738  3792  3796      1
  3739  3792  3797      1
  3740  3793  3798      1
  3741  3793  3799      1
  3742  3793  3800      1
  3743  3794  3801      1
  3744  3801  3802      1
  3745  3801  3803      1
  3746  3801  3804      1
  3747  3802  3805      1
  3748  3802  3806      1
  3749  3802  3807      1
  3750  3803  3808      1
  3751  3803  3809      1
  3752  3803  3810      1
  3753  3804  3811      1
  3754  3811  3812      1
  3755  3811  3813      1
  3756  3811  3814      1
  3757  3812  3815      1
  3758  3812  3816      1
  3759  3812  3817      1
  3760  3813  3818      1
  3761  3813  3819      1
  3762  3813  3820      1
  3763  3814  3821      1
  3764  3821  3822      1
  3765  3821  3823      1
  3766  3821  3824      1
  3767  3822  3825      1
  3768  3822  3826      1
  3769  3822  3827      1
  3770  3823  3828      1
  3771  3823  3829      1
  3772  3823  3830      1
  3773  3824  3831      1
  3774  3831  3832      1
  3775  3831  3833      1
  3776  3831  3834      1
  3777  3832  3835      1
  3778  3832  3836      1
  3779  3832  3837      1
  3780  3833  3838      1
  3781  3833  3839      1
  3782  3833  3840      1
  3783  3834  3841      1
  3784  3841  3842      1
  3785  3841  3843      1
  3786  3841  3844      1
  3787  3842  3845      1
  3788  3842  3846      1
  3789  3842  3847      1
  3790  3843  3848      1
  3791  3843  3849      1
  3792  3843  3850      1
  3793  3844  3851      1
  3794  3851  3852      1
  3795  3851  3853      1
  3796  3851  3854      1
  3797  3852  3855      1
  3798  3852  3856      1
  3799  3852  3857      1
  3800  3853  3858      1
  3801  3853  3859      1
  3802  3853  3860      1
  3803  3854  3861      1
  3804  3861  3862      1
  3805  3861  3863      1
  3806  3861  3864      1
  3807  3862  3865      1
  3808  3862  3866      1
  3809  3862  3867      1
  3810  3863  3868      1
  3811  3863  3869      1
  3812  3863  3870      1
  3813  3871  3872      1
  3814  3871  3873      1
  3815  3871  3874      1
  3816  3872  3875      1
  3817  3872  3876      1
  3818  3872  3877      1
  3819  3873  3878      1
  3820  3873  3879      1
  3821  3873  3880      1
  3822  3874  3881      1
  3823  3881  3882      1
  3824  3881  3883      1
  3825  3881  3884      1
  3826  3882  3885      1
  3827  3882  3886      1
  3828  3882  3887      1
  3829  3883  3888      1
  3830  3883  3889      1
  3831  3883  3890      1
  3832  3884  3891      1
  3833  3891  3892      1
  3834  3891  3893      1
  3835  3891  3894      1
  3836  3892  3895      1
  3837  3892  3896      1
  3838  3892  3897      1
  3839  3893  3898      1
  3840  3893  3899      1
  3841  3893  3900      1
  3842  3894  3901      1
  3843  3901  3902      1
  3844  3901  3903      1
  3845  3901  3904      1
  3846  3902  3905      1
  3847  3902  3906      1
  3848  3902  3907      1
  3849  3903  3908      1
  3850  3903  3909      1
  3851  3903  3910      1
  3852  3904  3911      1
  3853  3911  3912      1
  3854  3911  3913      1
  3855  3911  3914      1
  3856  3912  3915      1
  3857  3912  3916      1
  3858  3912  3917      1
  3859  3913  3918      1
  3860  3913  3919      1
  3861  3913  3920      1
  3862  3914  3921      1
  3863  3921  3922      1
  3864  3921  3923      1
  3865  3921  3924      1
  3866  3922  3925      1
  3867  3922  3926      1
  3868  3922  3927      1
  3869  3923  3928      1
  3870  3923  3929      1
  3871  3923  3930      1
  3872  3924  3931      1
  3873  3931  3932      1
  3874  3931  3933      1
  3875  3931  3934      1
  3876  3932  3935      1
  3877  3932  3936      1
  3878  3932  3937      1
  3879  3933  3938      1
  3880  3933  3939      1
  3881  3933  3940      1
  3882  3934  3941      1
  3883  3941  3942      1
  3884  3941  3943      1
  3885  3941  3944      1
  3886  3942  3945      1
  3887  3942  3946      1
  3888  3942  3947      1
  3889  3943  3948      1
  3890  3943  3949      1
  3891  3943  3950      1
  3892  3944  3951      1
  3893  3951  3952      1
  3894  3951  3953      1
  3895  3951  3954      1
  3896  3952  3955      1
  3897  3952  3956      1
  3898  3952  3957      1
  3899  3953  3958      1
  3900  3953  3959      1
  3901  3953  3960      1
  3902  3954  3961      1
  3903  3961  3962      1
  3904  3961  3963      1
  3905  3961  3964      1
  3906  3962  3965      1
  3907  3962  3966      1
  3908  3962  3967      1
  3909  3963  3968      1
  3910  3963  3969      1
  3911  3963  3970      1
  3912  3964  3971      1
  3913  3971  3972      1
  3914  3971  3973      1
  3915  3971  3974      1
  3916  3972  3975      1
  3917  3972  3976      1
  3918  3972  3977      1
  3919  3973  3978      1
  3920  3973  3979      1
  3921  3973  3980      1
  3922  3974  3981      1
  3923  3981  3982      1
  3924  3981  3983      1
  3925  3981  3984      1
  3926  3982  3985      1
  3927  3982  3986      1
  3928  3982  3987      1
  3929  3983  3988      1
  3930  3983  3989      1
  3931  3983  3990      1
  3932  3984  3991      1
  3933  3991  3992      1
  3934  3991  3993      1
  3935  3991  3994      1
  3936  3992  3995      1
  3937  3992  3996      1
  3938  3992  3997      1
  3939  3993  3998      1
  3940  3993  3999      1
  3941  3993  4000      1
  3942  3994  4001      1
  3943  4001  4002      1
  3944  4001  4003      1
  3945  4001  4004      1
  3946  4002  4005      1
  3947  4002  4006      1
  3948  4002  4007      1
  3949  4003  4008      1
  3950  4003  4009      1
  3951  4003  4010      1
  3952  4004  4011      1
  3953  4011  4012      1
  3954  4011  4013      1
  3955  4011  4014      1
  3956  4012  4015      1
  3957  4012  4016      1
  3958  4012  4017      1
  3959  4013  4018      1
  3960  4013  4019      1
  3961  4013  4020      1
  3962  4014  4021      1
  3963  4021  4022      1
  3964  4021  4023      1
  3965  4021  4024      1
  3966  4022  4025      1
  3967  4022  4026      1
  3968  4022  4027      1
  3969  4023  4028      1
  3970  4023  4029      1
  3971  4023  4030      1
  3972  4024  4031      1
  3973  4031  4032      1
  3974  4031  4033      1
  3975  4031  4034      1
  3976  4032  4035      1
  3977  4032  4036      1
  3978  4032  4037      1
  3979  4033  4038      1
  3980  4033  4039      1
  3981  4033  4040      1
  3982  4034  4041      1
  3983  4041  4042      1
  3984  4041  4043      1
  3985  4041  4044      1
  3986  4042  4045      1
  3987  4042  4046      1
  3988  4042  4047      1
  3989  4043  4048      1
  3990  4043  4049      1
  3991  4043  4050      1
  3992  4044  4051      1
  3993  4051  4052      1
  3994  4051  4053      1
  3995  4051  4054      1
  3996  4052  4055      1
  3997  4052  4056      1
  3998  4052  4057      1
  3999  4053  4058      1
  4000  4053  4059      1
  4001  4053  4060      1
  4002  4054  4061      1
  4003  4061  4062      1
  4004  4061  4063      1
  4005  4061  4064      1
  4006  4062  4065      1
  4007  4062  4066      1
  4008  4062  4067      1
  4009  4063  4068      1
  4010  4063  4069      1
  4011  4063  4070      1
  4012  4071  4072      1
  4013  4071  4073      1
  4014  4071  4074      1
  4015  4072  4075      1
  4016  4072  4076      1
  4017  4072  4077      1
  4018  4073  4078      1
  4019  4073  4079      1
  4020  4073  4080      1
  4021  4074  4081      1
  4022  4081  4082      1
  4023  4081  4083      1
  4024  4081  4084      1
  4025  4082  4085      1
  4026  4082  4086      1
  4027  4082  4087      1
  4028  4083  4088      1
  4029  4083  4089      1
  4030  4083  4090      1
  4031  4084  4091      1
  4032  4091  4092      1
  4033  4091  4093      1
  4034  4091  4094      1
  4035  4092  4095      1
  4036  4092  4096      1
  4037  4092  4097      1
  4038  4093  4098      1
  4039  4093  4099      1
  4040  4093  4100      1
  4041  4094  4101      1
  4042  4101  4102      1
  4043  4101  4103      1
  4044  4101  4104      1
  4045  4102  4105      1
  4046  4102  4106      1
  4047  4102  4107      1
  4048  4103  4108      1
  4049  4103  4109      1
  4050  4103  4110      1
  4051  4104  4111      1
  4052  4111  4112      1
  4053  4111  4113      1
  4054  4111  4114      1
  4055  4112  4115      1
  4056  4112  4116      1
  4057  4112  4117      1
  4058  4113  4118      1
  4059  4113  4119      1
  4060  4113  4120      1
  4061  4114  4121      1
  4062  4121  4122      1
  4063  4121  4123      1
  4064  4121  4124      1
  4065  4122  4125      1
  4066  4122  4126      1
  4067  4122  4127      1
  4068  4123  4128      1
  4069  4123  4129      1
  4070  4123  4130      1
  4071  4124  4131      1
  4072  4131  4132      1
  4073  4131  4133      1
  4074  4131  4134      1
  4075  4132  4135      1
  4076  4132  4136      1
  4077  4132  4137      1
  4078  4133  4138      1
  4079  4133  4139      1
  4080  4133  4140      1
  4081  4134  4141      1
  4082  4141  4142      1
  4083  4141  4143      1
  4084  4141  4144      1
  4085  4142  4145      1
  4086  4142  4146      1
  4087  4142  4147      1
  4088  4143  4148      1
  4089  4143  4149      1
  4090  4143  4150      1
  4091  4144  4151      1
  4092  4151  4152      1
  4093  4151  4153      1
  4094  4151  4154      1
  4095  4152  4155      1
  4096  4152  4156      1
  4097  4152  4157      1
  4098  4153  4158      1
  4099  4153  4159      1
  4100  4153  4160      1
  4101  4154  4161      1
  4102  4161  4162      1
  4103  4161  4163      1
  4104  4161  4164      1
  4105  4162  4165      1
  4106  4162  4166      1
  4107  4162  4167      1
  4108  4163  4168      1
  4109  4163  4169      1
  4110  4163  4170      1
  4111  4164  4171      1
  4112  4171  4172      1
  4113  4171  4173      1
  4114  4171  4174      1
  4115  4172  4175      1
  4116  4172  4176      1
  4117  4172  4177      1
  4118  4173  4178      1
  4119  4173  4179      1
  4120  4173  4180      1
  4121  4174  4181      1
  4122  4181  4182      1
  4123  4181  4183      1
  4124  4181  4184      1
  4125  4182  4185      1
  4126  4182  4186      1
  4127  4182  4187      1
  4128  4183  4188      1
  4129  4183  4189      1
  4130  4183  4190      1
  4131  4184  4191      1
  4132  4191  4192      1
  4133  4191  4193      1
  4134  4191  4194      1
  4135  4192  4195      1
  4136  4192  4196      1
  4137  4192  4197      1
  4138  4193  4198      1
  4139  4193  4199      1
  4140  4193  4200      1
  4141  4194  4201      1
  4142  4201  4202      1
  4143  4201  4203      1
  4144  4201  4204      1
  4145  4202  4205      1
  4146  4202  4206      1
  4147  4202  4207      1
  4148  4203  4208      1
  4149  4203  4209      1
  4150  4203  4210      1
  4151  4204  4211      1
  4152  4211  4212      1
  4153  4211  4213      1
  4154  4211  4214      1
  4155  4212  4215      1
  4156  4212  4216      1
  4157  4212  4217      1
  4158  4213  4218      1
  4159  4213  4219      1
  4160  4213  4220      1
  4161  4214  4221      1
  4162  4221  4222      1
  4163  4221  4223      1
  4164  4221  4224      1
  4165  4222  4225      1
  4166  4222  4226      1
  4167  4222  4227      1
  4168  4223  4228      1
  4169  4223  4229      1
  4170  4223  4230      1
  4171  4224  4231      1
  4172  4231  4232      1
  4173  4231  4233      1
  4174  4231  4234      1
  4175  4232  4235      1
  4176  4232  4236      1
  4177  4232  4237      1
  4178  4233  4238      1
  4179  4233  4239      1
  4180  4233  4240      1
  4181  4234  4241      1
  4182  4241  4242      1
  4183  4241  4243      1
  4184  4241  4244      1
  4185  4242  4245      1
  4186  4242  4246      1
  4187  4242  4247      1
  4188  4243  4248      1
  4189  4243  4249      1
  4190  4243  4250      1
  4191  4244  4251      1
  4192  4251  4252      1
  4193  4251  4253      1
  4194  4251  4254      1
  4195  4252  4255      1
  4196  4252  4256      1
  4197  4252  4257      1
  4198  4253  4258      1
  4199  4253  4259      1
  4200  4253  4260      1
  4201  4261  4262      1
  4202  4261  4263      1
  4203  4261  4264      1
  4204  4262  4265      1
  4205  4262  4266      1
  4206  4262  4267      1
  4207  4263  4268      1
  4208  4263  4269      1
  4209  4263  4270      1
  4210  4264  4271      1
  4211  4271  4272      1
  4212  4271  4273      1
  4213  4271  4274      1
  4214  4272  4275      1
  4215  4272  4276      1
  4216  4272  4277      1
  4217  4273  4278      1
  4218  4273  4279      1
  4219  4273  4280      1
  4220  4274  4281      1
  4221  4281  4282      1
  4222  4281  4283      1
  4223  4281  4284      1
  4224  4282  4285      1
  4225  4282  4286      1
  4226  4282  4287      1
  4227  4283  4288      1
  4228  4283  4289      1
  4229  4283  4290      1
  4230  4284  4291      1
  4231  4291  4292      1
  4232  4291  4293      1
  4233  4291  4294      1
  4234  4292  4295      1
  4235  4292  4296      1
  4236  4292  4297      1
  4237  4293  4298      1
  4238  4293  4299      1
  4239  4293  4300      1
  4240  4294  4301      1
  4241  4301  4302      1
  4242  4301  4303      1
  4243  4301  4304      1
  4244  4302  4305      1
  4245  4302  4306      1
  4246  4302  4307      1
  4247  4303  4308      1
  4248  4303  4309      1
  4249  4303  4310      1
  4250  4304  4311      1
  4251  4311  4312      1
  4252  4311  4313      1
  4253  4311  4314      1
  4254  4312  4315      1
  4255  4312  4316      1
  4256  4312  4317      1
  4257  4313  4318      1
  4258  4313  4319      1
  4259  4313  4320      1
  4260  4314  4321      1
  4261  4321  4322      1
  4262  4321  4323      1
  4263  4321  4324      1
  4264  4322  4325      1
  4265  4322  4326      1
  4266  4322  4327      1
  4267  4323  4328      1
  4268  4323  4329      1
  4269  4323  4330      1
  4270  4324  4331      1
  4271  4331  4332      1
  4272  4331  4333      1
  4273  4331  4334      1
  4274  4332  4335      1
  4275  4332  4336      1
  4276  4332  4337      1
  4277  4333  4338      1
  4278  4333  4339      1
  4279  4333  4340      1
  4280  4334  4341      1
  4281  4341  4342      1
  4282  4341  4343      1
  4283  4341  4344      1
  4284  4342  4345      1
  4285  4342  4346      1
  4286  4342  4347      1
  4287  4343  4348      1
  4288  4343  4349      1
  4289  4343  4350      1
  4290  4344  4351      1
  4291  4351  4352      1
  4292  4351  4353      1
  4293  4351  4354      1
  4294  4352  4355      1
  4295  4352  4356      1
  4296  4352  4357      1
  4297  4353  4358      1
  4298  4353  4359      1
  4299  4353  4360      1
  4300  4354  4361      1
  4301  4361  4362      1
  4302  4361  4363      1
  4303  4361  4364      1
  4304  4362  4365      1
  4305  4362  4366      1
  4306  4362  4367      1
  4307  4363  4368      1
  4308  4363  4369      1
  4309  4363  4370      1
  4310  4364  4371      1
  4311  4371  4372      1
  4312  4371  4373      1
  4313  4371  4374      1
  4314  4372  4375      1
  4315  4372  4376      1
  4316  4372  4377      1
  4317  4373  4378      1
  4318  4373  4379      1
  4319  4373  4380      1
  4320  4374  4381      1
  4321  4381  4382      1
  4322  4381  4383      1
  4323  4381  4384      1
  4324  4382  4385      1
  4325  4382  4386      1
  4326  4382  4387      1
  4327  4383  4388      1
  4328  4383  4389      1
  4329  4383  4390      1
  4330  4384  4391      1
  4331  4391  4392      1
  4332  4391  4393      1
  4333  4391  4394      1
  4334  4392  4395      1
  4335  4392  4396      1
  4336  4392  4397      1
  4337  4393  4398      1
  4338  4393  4399      1
  4339  4393  4400      1
  4340  4394  4401      1
  4341  4401  4402      1
  4342  4401  4403      1
  4343  4401  4404      1
  4344  4402  4405      1
  4345  4402  4406      1
  4346  4402  4407      1
  4347  4403  4408      1
  4348  4403  4409      1
  4349  4403  4410      1
  4350  4404  4411      1
  4351  4411  4412      1
  4352  4411  4413      1
  4353  4411  4414      1
  4354  4412  4415      1
  4355  4412  4416      1
  4356  4412  4417      1
  4357  4413  4418      1
  4358  4413  4419      1
  4359  4413  4420      1
  4360  4414  4421      1
  4361  4421  4422      1
  4362  4421  4423      1
  4363  4421  4424      1
  4364  4422  4425      1
  4365  4422  4426      1
  4366  4422  4427      1
  4367  4423  4428      1
  4368  4423  4429      1
  4369  4423  4430      1
  4370  4424  4431      1
  4371  4431  4432      1
  4372  4431  4433      1
  4373  4431  4434      1
  4374  4432  4435      1
  4375  4432  4436      1
  4376  4432  4437      1
  4377  4433  4438      1
  4378  4433  4439      1
  4379  4433  4440      1
  4380  4434  4441      1
  4381  4441  4442      1
  4382  4441  4443      1
  4383  4441  4444      1
  4384  4442  4445      1
  4385  4442  4446      1
  4386  4442  4447      1
  4387  4443  4448      1
  4388  4443  4449      1
  4389  4443  4450      1
  4390  4444  4451      1
  4391  4451  4452      1
  4392  4451  4453      1
  4393  4451  4454      1
  4394  4452  4455      1
  4395  4452  4456      1
  4396  4452  4457      1
  4397  4453  4458      1
  4398  4453  4459      1
  4399  4453  4460      1
  4400  4454  4461      1
  4401  4461  4462      1
  4402  4461  4463      1
  4403  4461  4464      1
  4404  4462  4465      1
  4405  4462  4466      1
  4406  4462  4467      1
  4407  4463  4468      1
  4408  4463  4469      1
  4409  4463  4470      1
  4410  4464  4471      1
  4411  4471  4472      1
  4412  4471  4473      1
  4413  4471  4474      1
  4414  4472  4475      1
  4415  4472  4476      1
  4416  4472  4477      1
  4417  4473  4478      1
  4418  4473  4479      1
  4419  4473  4480      1
  4420  4474  4481      1
  4421  4481  4482      1
  4422  4481  4483      1
  4423  4481  4484      1
  4424  4482  4485      1
  4425  4482  4486      1
  4426  4482  4487      1
  4427  4483  4488      1
  4428  4483  4489      1
  4429  4483  4490      1
  4430  4484  4491      1
  4431  4491  4492      1
  4432  4491  4493      1
  4433  4491  4494      1
  4434  4492  4495      1
  4435  4492  4496      1
  4436  4492  4497      1
  4437  4493  4498      1
  4438  4493  4499      1
  4439  4493  4500      1
  4440  4501  4502      1
  4441  4501  4503      1
  4442  4501  4504      1
  4443  4502  4505      1
  4444  4502  4506      1
  4445  4502  4507      1
  4446  4503  4508      1
  4447  4503  4509      1
  4448  4503  4510      1
  4449  4504  4511      1
  4450  4511  4512      1
  4451  4511  4513      1
  4452  4511  4514      1
  4453  4512  4515      1
  4454  4512  4516      1
  4455  4512  4517      1
  4456  4513  4518      1
  4457  4513  4519      1
  4458  4513  4520      1
  4459  4514  4521      1
  4460  4521  4522      1
  4461  4521  4523      1
  4462  4521  4524      1
  4463  4522  4525      1
  4464  4522  4526      1
  4465  4522  4527      1
  4466  4523  4528      1
  4467  4523  4529      1
  4468  4523  4530      1
  4469  4524  4531      1
  4470  4531  4532      1
  4471  4531  4533      1
  4472  4531  4534      1
  4473  4532  4535      1
  4474  4532  4536      1
  4475  4532  4537      1
  4476  4533  4538      1
  4477  4533  4539      1
  4478  4533  4540      1
  4479  4534  4541      1
  4480  4541  4542      1
  4481  4541  4543      1
  4482  4541  4544      1
  4483  4542  4545      1
  4484  4542  4546      1
  4485  4542  4547      1
  4486  4543  4548      1
  4487  4543  4549      1
  4488  4543  4550      1
  4489  4544  4551      1
  4490  4551  4552      1
  4491  4551  4553      1
  4492  4551  4554      1
  4493  4552  4555      1
  4494  4552  4556      1
  4495  4552  4557      1
  4496  4553  4558      1
  4497  4553  4559      1
  4498  4553  4560      1
  4499  4554  4561      1
  4500  4561  4562      1
  4501  4561  4563      1
  4502  4561  4564      1
  4503  4562  4565      1
  4504  4562  4566      1
  4505  4562  4567      1
  4506  4563  4568      1
  4507  4563  4569      1
  4508  4563  4570      1
  4509  4564  4571      1
  4510  4571  4572      1
  4511  4571  4573      1
  4512  4571  4574      1
  4513  4572  4575      1
  4514  4572  4576      1
  4515  4572  4577      1
  4516  4573  4578      1
  4517  4573  4579      1
  4518  4573  4580      1
  4519  4574  4581      1
  4520  4581  4582      1
  4521  4581  4583      1
  4522  4581  4584      1
  4523  4582  4585      1
  4524  4582  4586      1
  4525  4582  4587      1
  4526  4583  4588      1
  4527  4583  4589      1
  4528  4583  4590      1
  4529  4584  4591      1
  4530  4591  4592      1
  4531  4591  4593      1
  4532  4591  4594      1
  4533  4592  4595      1
  4534  4592  4596      1
  4535  4592  4597      1
  4536  4593  4598      1
  4537  4593  4599      1
  4538  4593  4600      1
  4539  4594  4601      1
  4540  4601  4602      1
  4541  4601  4603      1
  4542  4601  4604      1
  4543  4602  4605      1
  4544  4602  4606      1
  4545  4602  4607      1
  4546  4603  4608      1
  4547  4603  4609      1
  4548  4603  4610      1
  4549  4604  4611      1
  4550  4611  4612      1
  4551  4611  4613      1
  4552  4611  4614      1
  4553  4612  4615      1
  4554  4612  4616      1
  4555  4612  4617      1
  4556  4613  4618      1
  4557  4613  4619      1
  4558  4613  4620      1
  4559  4614  4621      1
  4560  4621  4622      1
  4561  4621  4623      1
  4562  4621  4624      1
  4563  4622  4625      1
  4564  4622  4626      1
  4565  4622  4627      1
  4566  4623  4628      1
  4567  4623  4629      1
  4568  4623  4630      1
  4569  4624  4631      1
  4570  4631  4632      1
  4571  4631  4633      1
  4572  4631  4634      1
  4573  4632  4635      1
  4574  4632  4636      1
  4575  4632  4637      1
  4576  4633  4638      1
  4577  4633  4639      1
  4578  4633  4640      1
  4579  4634  4641      1
  4580  4641  4642      1
  4581  4641  4643      1
  4582  4641  4644      1
  4583  4642  4645      1
  4584  4642  4646      1
  4585  4642  4647      1
  4586  4643  4648      1
  4587  4643  4649      1
  4588  4643  4650      1
  4589  4651  4652      1
  4590  4651  4653      1
  4591  4651  4654      1
  4592  4652  4655      1
  4593  4652  4656      1
  4594  4652  4657      1
  4595  4653  4658      1
  4596  4653  4659      1
  4597  4653  4660      1
  4598  4654  4661      1
  4599  4661  4662      1
  4600  4661  4663      1
  4601  4661  4664      1
  4602  4662  4665      1
  4603  4662  4666      1
  4604  4662  4667      1
  4605  4663  4668      1
  4606  4663  4669      1
  4607  4663  4670      1
  4608  4664  4671      1
  4609  4671  4672      1
  4610  4671  4673      1
  4611  4671  4674      1
  4612  4672  4675      1
  4613  4672  4676      1
  4614  4672  4677      1
  4615  4673  4678      1
  4616  4673  4679      1
  4617  4673  4680      1
  4618  4674  4681      1
  4619  4681  4682      1
  4620  4681  4683      1
  4621  4681  4684      1
  4622  4682  4685      1
  4623  4682  4686      1
  4624  4682  4687      1
  4625  4683  4688      1
  4626  4683  4689      1
  4627  4683  4690      1
  4628  4684  4691      1
  4629  4691  4692      1
  4630  4691  4693      1
  4631  4691  4694      1
  4632  4692  4695      1
  4633  4692  4696      1
  4634  4692  4697      1
  4635  4693  4698      1
  4636  4693  4699      1
  4637  4693  4700      1
  4638  4694  4701      1
  4639  4701  4702      1
  4640  4701  4703      1
  4641  4701  4704      1
  4642  4702  4705      1
  4643  4702  4706      1
  4644  4702  4707      1
  4645  4703  4708      1
  4646  4703  4709      1
  4647  4703  4710      1
  4648  4704  4711      1
  4649  4711  4712      1
  4650  4711  4713      1
  4651  4711  4714      1
  4652  4712  4715      1
  4653  4712  4716      1
  4654  4712  4717      1
  4655  4713  4718      1
  4656  4713  4719      1
  4657  4713  4720      1
  4658  4714  4721      1
  4659  4721  4722      1
  4660  4721  4723      1
  4661  4721  4724      1
  4662  4722  4725      1
  4663  4722  4726      1
  4664  4722  4727      1
  4665  4723  4728      1
  4666  4723  4729      1
  4667  4723  4730      1
  4668  4724  4731      1
  4669  4731  4732      1
  4670  4731  4733      1
  4671  4731  4734      1
  4672  4732  4735      1
  4673  4732  4736      1
  4674  4732  4737      1
  4675  4733  4738      1
  4676  4733  4739      1
  4677  4733  4740      1
  4678  4734  4741      1
  4679  4741  4742      1
  4680  4741  4743      1
  4681  4741  4744      1
  4682  4742  4745      1
  4683  4742  4746      1
  4684  4742  4747      1
  4685  4743  4748      1
  4686  4743  4749      1
  4687  4743  4750      1
  4688  4744  4751      1
  4689  4751  4752      1
  4690  4751  4753      1
  4691  4751  4754      1
  4692  4752  4755      1
  4693  4752  4756      1
  4694  4752  4757      1
  4695  4753  4758      1
  4696  4753  4759      1
  4697  4753  4760      1
  4698  4754  4761      1
  4699  4761  4762      1
  4700  4761  4763      1
  4701  4761  4764      1
  4702  4762  4765      1
  4703  4762  4766      1
  4704  4762  4767      1
  4705  4763  4768      1
  4706  4763  4769      1
  4707  4763  4770      1
  4708  4764  4771      1
  4709  4771  4772      1
  4710  4771  4773      1
  4711  4771  4774      1
  4712  4772  4775      1
  4713  4772  4776      1
  4714  4772  4777      1
  4715  4773  4778      1
  4716  4773  4779      1
  4717  4773  4780      1
  4718  4774  4781      1
  4719  4781  4782      1
  4720  4781  4783      1
  4721  4781  4784      1
  4722  4782  4785      1
  4723  4782  4786      1
  4724  4782  4787      1
  4725  4783  4788      1
  4726  4783  4789      1
  4727  4783  4790      1
  4728  4784  4791      1
  4729  4791  4792      1
  4730  4791  4793      1
  4731  4791  4794      1
  4732  4792  4795      1
  4733  4792  4796      1
  4734  4792  4797      1
  4735  4793  4798      1
  4736  4793  4799      1
  4737  4793  4800      1
  4738  4794  4801      1
  4739  4801  4802      1
  4740  4801  4803      1
  4741  4801  4804      1
  4742  4802  4805      1
  4743  4802  4806      1
  4744  4802  4807      1
  4745  4803  4808      1
  4746  4803  4809      1
  4747  4803  4810      1
  4748  4811  4812      1
  4749  4811  4813      1
  4750  4811  4814      1
  4751  4812  4815      1
  4752  4812  4816      1
  4753  4812  4817      1
  4754  4813  4818      1
  4755  4813  4819      1
  4756  4813  4820      1
  4757  4814  4821      1
  4758  4821  4822      1
  4759  4821  4823      1
  4760  4821  4824      1
  4761  4822  4825      1
  4762  4822  4826      1
  4763  4822  4827      1
  4764  4823  4828      1
  4765  4823  4829      1
  4766  4823  4830      1
  4767  4824  4831      1
  4768  4831  4832      1
  4769  4831  4833      1
  4770  4831  4834      1
  4771  4832  4835      1
  4772  4832  4836      1
  4773  4832  4837      1
  4774  4833  4838      1
  4775  4833  4839      1
  4776  4833  4840      1
  4777  4834  4841      1
  4778  4841  4842      1
  4779  4841  4843      1
  4780  4841  4844      1
  4781  4842  4845      1
  4782  4842  4846      1
  4783  4842  4847      1
  4784  4843  4848      1
  4785  4843  4849      1
  4786  4843  4850      1
  4787  4844  4851      1
  4788  4851  4852      1
  4789  4851  4853      1
  4790  4851  4854      1
  4791  4852  4855      1
  4792  4852  4856      1
  4793  4852  4857      1
  4794  4853  4858      1
  4795  4853  4859      1
  4796  4853  4860      1
  4797  4854  4861      1
  4798  4861  4862      1
  4799  4861  4863      1
  4800  4861  4864      1
  4801  4862  4865      1
  4802  4862  4866      1
  4803  4862  4867      1
  4804  4863  4868      1
  4805  4863  4869      1
  4806  4863  4870      1
  4807  4864  4871      1
  4808  4871  4872      1
  4809  4871  4873      1
  4810  4871  4874      1
  4811  4872  4875      1
  4812  4872  4876      1
  4813  4872  4877      1
  4814  4873  4878      1
  4815  4873  4879      1
  4816  4873  4880      1
  4817  4874  4881      1
  4818  4881  4882      1
  4819  4881  4883      1
  4820  4881  4884      1
  4821  4882  4885      1
  4822  4882  4886      1
  4823  4882  4887      1
  4824  4883  4888      1
  4825  4883  4889      1
  4826  4883  4890      1
  4827  4884  4891      1
  4828  4891  4892      1
  4829  4891  4893      1
  4830  4891  4894      1
  4831  4892  4895      1
  4832  4892  4896      1
  4833  4892  4897      1
  4834  4893  4898      1
  4835  4893  4899      1
  4836  4893  4900      1
  4837  4894  4901      1
  4838  4901  4902      1
  4839  4901  4903      1
  4840  4901  4904      1
  4841  4902  4905      1
  4842  4902  4906      1
  4843  4902  4907      1
  4844  4903  4908      1
  4845  4903  4909      1
  4846  4903  4910      1
  4847  4904  4911      1
  4848  4911  4912      1
  4849  4911  4913      1
  4850  4911  4914      1
  4851  4912  4915      1
  4852  4912  4916      1
  4853  4912  4917      1
  4854  4913  4918      1
  4855  4913  4919      1
  4856  4913  4920      1
  4857  4914  4921      1
  4858  4921  4922      1
  4859  4921  4923      1
  4860  4921  4924      1
  4861  4922  4925      1
  4862  4922  4926      1
  4863  4922  4927      1
  4864  4923  4928      1
  4865  4923  4929      1
  4866  4923  4930      1
  4867  4924  4931      1
  4868  4931  4932      1
  4869  4931  4933      1
  4870  4931  4934      1
  4871  4932  4935      1
  4872  4932  4936      1
  4873  4932  4937      1
  4874  4933  4938      1
  4875  4933  4939      1
  4876  4933  4940      1
  4877  4934  4941      1
  4878  4941  4942      1
  4879  4941  4943      1
  4880  4941  4944      1
  4881  4942  4945      1
  4882  4942  4946      1
  4883  4942  4947      1
  4884  4943  4948      1
  4885  4943  4949      1
  4886  4943  4950      1
  4887  4944  4951      1
  4888  4951  4952      1
  4889  4951  4953      1
  4890  4951  4954      1
  4891  4952  4955      1
  4892  4952  4956      1
  4893  4952  4957      1
  4894  4953  4958      1
  4895  4953  4959      1
  4896  4953  4960      1
  4897  4954  4961      1
  4898  4961  4962      1
  4899  4961  4963      1
  4900  4961  4964      1
  4901  4962  4965      1
  4902  4962  4966      1
  4903  4962  4967      1
  4904  4963  4968      1
  4905  4963  4969      1
  4906  4963  4970      1
  4907  4971  4972      1
  4908  4971  4973      1
  4909  4971  4974      1
  4910  4972  4975      1
  4911  4972  4976      1
  4912  4972  4977      1
  4913  4973  4978      1
  4914  4973  4979      1
  4915  4973  4980      1
  4916  4974  4981      1
  4917  4981  4982      1
  4918  4981  4983      1
  4919  4981  4984      1
  4920  4982  4985      1
  4921  4982  4986      1
  4922  4982  4987      1
  4923  4983  4988      1
  4924  4983  4989      1
  4925  4983  4990      1
  4926  4984  4991      1
  4927  4991  4992      1
  4928  4991  4993      1
  4929  4991  4994      1
  4930  4992  4995      1
  4931  4992  4996      1
  4932  4992  4997      1
  4933  4993  4998      1
  4934  4993  4999      1
  4935  4993  5000      1
  4936  4994  5001      1
  4937  5001  5002      1
  4938  5001  5003      1
  4939  5001  5004      1
  4940  5002  5005      1
  4941  5002  5006      1
  4942  5002  5007      1
  4943  5003  5008      1
  4944  5003  5009      1
  4945  5003  5010      1
  4946  5004  5011      1
  4947  5011  5012      1
  4948  5011  5013      1
  4949  5011  5014      1
  4950  5012  5015      1
  4951  5012  5016      1
  4952  5012  5017      1
  4953  5013  5018      1
  4954  5013  5019      1
  4955  5013  5020      1
  4956  5014  5021      1
  4957  5021  5022      1
  4958  5021  5023      1
  4959  5021  5024      1
  4960  5022  5025      1
  4961  5022  5026      1
  4962  5022  5027      1
  4963  5023  5028      1
  4964  5023  5029      1
  4965  5023  5030      1
  4966  5024  5031      1
  4967  5031  5032      1
  4968  5031  5033      1
  4969  5031  5034      1
  4970  5032  5035      1
  4971  5032  5036      1
  4972  5032  5037      1
  4973  5033  5038      1
  4974  5033  5039      1
  4975  5033  5040      1
  4976  5034  5041      1
  4977  5041  5042      1
  4978  5041  5043      1
  4979  5041  5044      1
  4980  5042  5045      1
  4981  5042  5046      1
  4982  5042  5047      1
  4983  5043  5048      1
  4984  5043  5049      1
  4985  5043  5050      1
  4986  5044  5051      1
  4987  5051  5052      1
  4988  5051  5053      1
  4989  5051  5054      1
  4990  5052  5055      1
  4991  5052  5056      1
  4992  5052  5057      1
  4993  5053  5058      1
  4994  5053  5059      1
  4995  5053  5060      1
  4996  5054  5061      1
  4997  5061  5062      1
  4998  5061  5063      1
  4999  5061  5064      1
  5000  5062  5065      1
  5001  5062  5066      1
  5002  5062  5067      1
  5003  5063  5068      1
  5004  5063  5069      1
  5005  5063  5070      1
  5006  5064  5071      1
  5007  5071  5072      1
  5008  5071  5073      1
  5009  5071  5074      1
  5010  5072  5075      1
  5011  5072  5076      1
  5012  5072  5077      1
  5013  5073  5078      1
  5014  5073  5079      1
  5015  5073  5080      1
  5016  5074  5081      1
  5017  5081  5082      1
  5018  5081  5083      1
  5019  5081  5084      1
  5020  5082  5085      1
  5021  5082  5086      1
  5022  5082  5087      1
  5023  5083  5088      1
  5024  5083  5089      1
  5025  5083  5090      1
  5026  5084  5091      1
  5027  5091  5092      1
  5028  5091  5093      1
  5029  5091  5094      1
  5030  5092  5095      1
  5031  5092  5096      1
  5032  5092  5097      1
  5033  5093  5098      1
  5034  5093  5099      1
  5035  5093  5100      1
  5036  5094  5101      1
  5037  5101  5102      1
  5038  5101  5103      1
  5039  5101  5104      1
  5040  5102  5105      1
  5041  5102  5106      1
  5042  5102  5107      1
  5043  5103  5108      1
  5044  5103  5109      1
  5045  5103  5110      1
  5046  5104  5111      1
  5047  5111  5112      1
  5048  5111  5113      1
  5049  5111  5114      1
  5050  5112  5115      1
  5051  5112  5116      1
  5052  5112  5117      1
  5053  5113  5118      1
  5054  5113  5119      1
  5055  5113  5120      1
  5056  5121  5122      1
  5057  5121  5123      1
  5058  5121  5124      1
  5059  5122  5125      1
  5060  5122  5126      1
  5061  5122  5127      1
  5062  5123  5128      1
  5063  5123  5129      1
  5064  5123  5130      1
  5065  5124  5131      1
  5066  5131  5132      1
  5067  5131  5133      1
  5068  5131  5134      1
  5069  5132  5135      1
  5070  5132  5136      1
  5071  5132  5137      1
  5072  5133  5138      1
  5073  5133  5139      1
  5074  5133  5140      1
  5075  5134  5141      1
  5076  5141  5142      1
  5077  5141  5143      1
  5078  5141  5144      1
  5079  5142  5145      1
  5080  5142  5146      1
  5081  5142  5147      1
  5082  5143  5148      1
  5083  5143  5149      1
  5084  5143  5150      1
  5085  5144  5151      1
  5086  5151  5152      1
  5087  5151  5153      1
  5088  5151  5154      1
  5089  5152  5155      1
  5090  5152  5156      1
  5091  5152  5157      1
  5092  5153  5158      1
  5093  5153  5159      1
  5094  5153  5160      1
  5095  5154  5161      1
  5096  5161  5162      1
  5097  5161  5163      1
  5098  5161  5164      1
  5099  5162  5165      1
  5100  5162  5166      1
  5101  5162  5167      1
  5102  5163  5168      1
  5103  5163  5169      1
  5104  5163  5170      1
  5105  5164  5171      1
  5106  5171  5172      1
  5107  5171  5173      1
  5108  5171  5174      1
  5109  5172  5175      1
  5110  5172  5176      1
  5111  5172  5177      1
  5112  5173  5178      1
  5113  5173  5179      1
  5114  5173  5180      1
  5115  5174  5181      1
  5116  5181  5182      1
  5117  5181  5183      1
  5118  5181  5184      1
  5119  5182  5185      1
  5120  5182  5186      1
  5121  5182  5187      1
  5122  5183  5188      1
  5123  5183  5189      1
  5124  5183  5190      1
  5125  5184  5191      1
  5126  5191  5192      1
  5127  5191  5193      1
  5128  5191  5194      1
  5129  5192  5195      1
  5130  5192  5196      1
  5131  5192  5197      1
  5132  5193  5198      1
  5133  5193  5199      1
  5134  5193  5200      1
  5135  5194  5201      1
  5136  5201  5202      1
  5137  5201  5203      1
  5138  5201  5204      1
  5139  5202  5205      1
  5140  5202  5206      1
  5141  5202  5207      1
  5142  5203  5208      1
  5143  5203  5209      1
  5144  5203  5210      1
  5145  5204  5211      1
  5146  5211  5212      1
  5147  5211  5213      1
  5148  5211  5214      1
  5149  5212  5215      1
  5150  5212  5216      1
  5151  5212  5217      1
  5152  5213  5218      1
  5153  5213  5219      1
  5154  5213  5220      1
  5155  5214  5221      1
  5156  5221  5222      1
  5157  5221  5223      1
  5158  5221  5224      1
  5159  5222  5225      1
  5160  5222  5226      1
  5161  5222  5227      1
  5162  5223  5228      1
  5163  5223  5229      1
  5164  5223  5230      1
  5165  5224  5231      1
  5166  5231  5232      1
  5167  5231  5233      1
  5168  5231  5234      1
  5169  5232  5235      1
  5170  5232  5236      1
  5171  5232  5237      1
  5172  5233  5238      1
  5173  5233  5239      1
  5174  5233  5240      1
  5175  5234  5241      1
  5176  5241  5242      1
  5177  5241  5243      1
  5178  5241  5244      1
  5179  5242  5245      1
  5180  5242  5246      1
  5181  5242  5247      1
  5182  5243  5248      1
  5183  5243  5249      1
  5184  5243  5250      1
  5185  5244  5251      1
  5186  5251  5252      1
  5187  5251  5253      1
  5188  5251  5254      1
  5189  5252  5255      1
  5190  5252  5256      1
  5191  5252  5257      1
  5192  5253  5258      1
  5193  5253  5259      1
  5194  5253  5260      1
  5195  5254  5261      1
  5196  5261  5262      1
  5197  5261  5263      1
  5198  5261  5264      1
  5199  5262  5265      1
  5200  5262  5266      1
  5201  5262  5267      1
  5202  5263  5268      1
  5203  5263  5269      1
  5204  5263  5270      1
  5205  5271  5272      1
  5206  5271  5273      1
  5207  5271  5274      1
  5208  5272  5275      1
  5209  5272  5276      1
  5210  5272  5277      1
  5211  5273  5278      1
  5212  5273  5279      1
  5213  5273  5280      1
  5214  5274  5281      1
  5215  5281  5282      1
  5216  5281  5283      1
  5217  5281  5284      1
  5218  5282  5285      1
  5219  5282  5286      1
  5220  5282  5287      1
  5221  5283  5288      1
  5222  5283  5289      1
  5223  5283  5290      1
  5224  5284  5291      1
  5225  5291  5292      1
  5226  5291  5293      1
  5227  5291  5294      1
  5228  5292  5295      1
  5229  5292  5296      1
  5230  5292  5297      1
  5231  5293  5298      1
  5232  5293  5299      1
  5233  5293  5300      1
  5234  5294  5301      1
  5235  5301  5302      1
  5236  5301  5303      1
  5237  5301  5304      1
  5238  5302  5305      1
  5239  5302  5306      1
  5240  5302  5307      1
  5241  5303  5308      1
  5242  5303  5309      1
  5243  5303  5310      1
  5244  5304  5311      1
  5245  5311  5312      1
  5246  5311  5313      1
  5247  5311  5314      1
  5248  5312  5315      1
  5249  5312  5316      1
  5250  5312  5317      1
  5251  5313  5318      1
  5252  5313  5319      1
  5253  5313  5320      1
  5254  5314  5321      1
  5255  5321  5322      1
  5256  5321  5323      1
  5257  5321  5324      1
  5258  5322  5325      1
  5259  5322  5326      1
  5260  5322  5327      1
  5261  5323  5328      1
  5262  5323  5329      1
  5263  5323  5330      1
  5264  5324  5331      1
  5265  5331  5332      1
  5266  5331  5333      1
  5267  5331  5334      1
  5268  5332  5335      1
  5269  5332  5336      1
  5270  5332  5337      1
  5271  5333  5338      1
  5272  5333  5339      1
  5273  5333  5340      1
  5274  5334  5341      1
  5275  5341  5342      1
  5276  5341  5343      1
  5277  5341  5344      1
  5278  5342  5345      1
  5279  5342  5346      1
  5280  5342  5347      1
  5281  5343  5348      1
  5282  5343  5349      1
  5283  5343  5350      1
  5284  5344  5351      1
  5285  5351  5352      1
  5286  5351  5353      1
  5287  5351  5354      1
  5288  5352  5355      1
  5289  5352  5356      1
  5290  5352  5357      1
  5291  5353  5358      1
  5292  5353  5359      1
  5293  5353  5360      1
  5294  5354  5361      1
  5295  5361  5362      1
  5296  5361  5363      1
  5297  5361  5364      1
  5298  5362  5365      1
  5299  5362  5366      1
  5300  5362  5367      1
  5301  5363  5368      1
  5302  5363  5369      1
  5303  5363  5370      1
  5304  5364  5371      1
  5305  5371  5372      1
  5306  5371  5373      1
  5307  5371  5374      1
  5308  5372  5375      1
  5309  5372  5376      1
  5310  5372  5377      1
  5311  5373  5378      1
  5312  5373  5379      1
  5313  5373  5380      1
  5314  5374  5381      1
  5315  5381  5382      1
  5316  5381  5383      1
  5317  5381  5384      1
  5318  5382  5385      1
  5319  5382  5386      1
  5320  5382  5387      1
  5321  5383  5388      1
  5322  5383  5389      1
  5323  5383  5390      1
  5324  5384  5391      1
  5325  5391  5392      1
  5326  5391  5393      1
  5327  5391  5394      1
  5328  5392  5395      1
  5329  5392  5396      1
  5330  5392  5397      1
  5331  5393  5398      1
  5332  5393  5399      1
  5333  5393  5400      1
  5334  5394  5401      1
  5335  5401  5402      1
  5336  5401  5403      1
  5337  5401  5404      1
  5338  5402  5405      1
  5339  5402  5406      1
  5340  5402  5407      1
  5341  5403  5408      1
  5342  5403  5409      1
  5343  5403  5410      1
  5344  5404  5411      1
  5345  5411  5412      1
  5346  5411  5413      1
  5347  5411  5414      1
  5348  5412  5415      1
  5349  5412  5416      1
  5350  5412  5417      1
  5351  5413  5418      1
  5352  5413  5419      1
  5353  5413  5420      1
  5354  5421  5422      1
  5355  5421  5423      1
  5356  5421  5424      1
  5357  5422  5425      1
  5358  5422  5426      1
  5359  5422  5427      1
  5360  5423  5428      1
  5361  5423  5429      1
  5362  5423  5430      1
  5363  5424  5431      1
  5364  5431  5432      1
  5365  5431  5433      1
  5366  5431  5434      1
  5367  5432  5435      1
  5368  5432  5436      1
  5369  5432  5437      1
  5370  5433  5438      1
  5371  5433  5439      1
  5372  5433  5440      1
  5373  5434  5441      1
  5374  5441  5442      1
  5375  5441  5443      1
  5376  5441  5444      1
  5377  5442  5445      1
  5378  5442  5446      1
  5379  5442  5447      1
  5380  5443  5448      1
  5381  5443  5449      1
  5382  5443  5450      1
  5383  5444  5451      1
  5384  5451  5452      1
  5385  5451  5453      1
  5386  5451  5454      1
  5387  5452  5455      1
  5388  5452  5456      1
  5389  5452  5457      1
  5390  5453  5458      1
  5391  5453  5459      1
  5392  5453  5460      1
  5393  5454  5461      1
  5394  5461  5462      1
  5395  5461  5463      1
  5396  5461  5464      1
  5397  5462  5465      1
  5398  5462  5466      1
  5399  5462  5467      1
  5400  5463  5468      1
  5401  5463  5469      1
  5402  5463  5470      1
  5403  5464  5471      1
  5404  5471  5472      1
  5405  5471  5473      1
  5406  5471  5474      1
  5407  5472  5475      1
  5408  5472  5476      1
  5409  5472  5477      1
  5410  5473  5478      1
  5411  5473  5479      1
  5412  5473  5480      1
  5413  5474  5481      1
  5414  5481  5482      1
  5415  5481  5483      1
  5416  5481  5484      1
  5417  5482  5485      1
  5418  5482  5486      1
  5419  5482  5487      1
  5420  5483  5488      1
  5421  5483  5489      1
  5422  5483  5490      1
  5423  5484  5491      1
  5424  5491  5492      1
  5425  5491  5493      1
  5426  5491  5494      1
  5427  5492  5495      1
  5428  5492  5496      1
  5429  5492  5497      1
  5430  5493  5498      1
  5431  5493  5499      1
  5432  5493  5500      1
  5433  5494  5501      1
  5434  5501  5502      1
  5435  5501  5503      1
  5436  5501  5504      1
  5437  5502  5505      1
  5438  5502  5506      1
  5439  5502  5507      1
  5440  5503  5508      1
  5441  5503  5509      1
  5442  5503  5510      1
  5443  5504  5511      1
  5444  5511  5512      1
  5445  5511  5513      1
  5446  5511  5514      1
  5447  5512  5515      1
  5448  5512  5516      1
  5449  5512  5517      1
  5450  5513  5518      1
  5451  5513  5519      1
  5452  5513  5520      1
  5453  5514  5521      1
  5454  5521  5522      1
  5455  5521  5523      1
  5456  5521  5524      1
  5457  5522  5525      1
  5458  5522  5526      1
  5459  5522  5527      1
  5460  5523  5528      1
  5461  5523  5529      1
  5462  5523  5530      1
  5463  5524  5531      1
  5464  5531  5532      1
  5465  5531  5533      1
  5466  5531  5534      1
  5467  5532  5535      1
  5468  5532  5536      1
  5469  5532  5537      1
  5470  5533  5538      1
  5471  5533  5539      1
  5472  5533  5540      1
  5473  5534  5541      1
  5474  5541  5542      1
  5475  5541  5543      1
  5476  5541  5544      1
  5477  5542  5545      1
  5478  5542  5546      1
  5479  5542  5547      1
  5480  5543  5548      1
  5481  5543  5549      1
  5482  5543  5550      1
  5483  5544  5551      1
  5484  5551  5552      1
  5485  5551  5553      1
  5486  5551  5554      1
  5487  5552  5555      1
  5488  5552  5556      1
  5489  5552  5557      1
  5490  5553  5558      1
  5491  5553  5559      1
  5492  5553  5560      1
  5493  5554  5561      1
  5494  5561  5562      1
  5495  5561  5563      1
  5496  5561  5564      1
  5497  5562  5565      1
  5498  5562  5566      1
  5499  5562  5567      1
  5500  5563  5568      1
  5501  5563  5569      1
  5502  5563  5570      1
  5503  5571  5572      1
  5504  5571  5573      1
  5505  5571  5574      1
  5506  5572  5575      1
  5507  5572  5576      1
  5508  5572  5577      1
  5509  5573  5578      1
  5510  5573  5579      1
  5511  5573  5580      1
  5512  5574  5581      1
  5513  5581  5582      1
  5514  5581  5583      1
  5515  5581  5584      1
  5516  5582  5585      1
  5517  5582  5586      1
  5518  5582  5587      1
  5519  5583  5588      1
  5520  5583  5589      1
  5521  5583  5590      1
  5522  5584  5591      1
  5523  5591  5592      1
  5524  5591  5593      1
  5525  5591  5594      1
  5526  5592  5595      1
  5527  5592  5596      1
  5528  5592  5597      1
  5529  5593  5598      1
  5530  5593  5599      1
  5531  5593  5600      1
  5532  5594  5601      1
  5533  5601  5602      1
  5534  5601  5603      1
  5535  5601  5604      1
  5536  5602  5605      1
  5537  5602  5606      1
  5538  5602  5607      1
  5539  5603  5608      1
  5540  5603  5609      1
  5541  5603  5610      1
  5542  5604  5611      1
  5543  5611  5612      1
  5544  5611  5613      1
  5545  5611  5614      1
  5546  5612  5615      1
  5547  5612  5616      1
  5548  5612  5617      1
  5549  5613  5618      1
  5550  5613  5619      1
  5551  5613  5620      1
  5552  5614  5621      1
  5553  5621  5622      1
  5554  5621  5623      1
  5555  5621  5624      1
  5556  5622  5625      1
  5557  5622  5626      1
  5558  5622  5627      1
  5559  5623  5628      1
  5560  5623  5629      1
  5561  5623  5630      1
  5562  5624  5631      1
  5563  5631  5632      1
  5564  5631  5633      1
  5565  5631  5634      1
  5566  5632  5635      1
  5567  5632  5636      1
  5568  5632  5637      1
  5569  5633  5638      1
  5570  5633  5639      1
  5571  5633  5640      1
  5572  5634  5641      1
  5573  5641  5642      1
  5574  5641  5643      1
  5575  5641  5644      1
  5576  5642  5645      1
  5577  5642  5646      1
  5578  5642  5647      1
  5579  5643  5648      1
  5580  5643  5649      1
  5581  5643  5650      1
  5582  5644  5651      1
  5583  5651  5652      1
  5584  5651  5653      1
  5585  5651  5654      1
  5586  5652  5655      1
  5587  5652  5656      1
  5588  5652  5657      1
  5589  5653  5658      1
  5590  5653  5659      1
  5591  5653  5660      1
  5592  5654  5661      1
  5593  5661  5662      1
  5594  5661  5663      1
  5595  5661  5664      1
  5596  5662  5665      1
  5597  5662  5666      1
  5598  5662  5667      1
  5599  5663  5668      1
  5600  5663  5669      1
  5601  5663  5670      1
  5602  5664  5671      1
  5603  5671  5672      1
  5604  5671  5673      1
  5605  5671  5674      1
  5606  5672  5675      1
  5607  5672  5676      1
  5608  5672  5677      1
  5609  5673  5678      1
  5610  5673  5679      1
  5611  5673  5680      1
  5612  5674  5681      1
  5613  5681  5682      1
  5614  5681  5683      1
  5615  5681  5684      1
  5616  5682  5685      1
  5617  5682  5686      1
  5618  5682  5687      1
  5619  5683  5688      1
  5620  5683  5689      1
  5621  5683  5690      1
  5622  5684  5691      1
  5623  5691  5692      1
  5624  5691  5693      1
  5625  5691  5694      1
  5626  5692  5695      1
  5627  5692  5696      1
  5628  5692  5697      1
  5629  5693  5698      1
  5630  5693  5699      1
  5631  5693  5700      1
  5632  5694  5701      1
  5633  5701  5702      1
  5634  5701  5703      1
  5635  5701  5704      1
  5636  5702  5705      1
  5637  5702  5706      1
  5638  5702  5707      1
  5639  5703  5708      1
  5640  5703  5709      1
  5641  5703  5710      1
  5642  5704  5711      1
  5643  5711  5712      1
  5644  5711  5713      1
  5645  5711  5714      1
  5646  5712  5715      1
  5647  5712  5716      1
  5648  5712  5717      1
  5649  5713  5718      1
  5650  5713  5719      1
  5651  5713  5720      1
  5652  5721  5722      1
  5653  5721  5723      1
  5654  5721  5724      1
  5655  5722  5725      1
  5656  5722  5726      1
  5657  5722  5727      1
  5658  5723  5728      1
  5659  5723  5729      1
  5660  5723  5730      1
  5661  5724  5731      1
  5662  5731  5732      1
  5663  5731  5733      1
  5664  5731  5734      1
  5665  5732  5735      1
  5666  5732  5736      1
  5667  5732  5737      1
  5668  5733  5738      1
  5669  5733  5739      1
  5670  5733  5740      1
  5671  5734  5741      1
  5672  5741  5742      1
  5673  5741  5743      1
  5674  5741  5744      1
  5675  5742  5745      1
  5676  5742  5746      1
  5677  5742  5747      1
  5678  5743  5748      1
  5679  5743  5749      1
  5680  5743  5750      1
  5681  5744  5751      1
  5682  5751  5752      1
  5683  5751  5753      1
  5684  5751  5754      1
  5685  5752  5755      1
  5686  5752  5756      1
  5687  5752  5757      1
  5688  5753  5758      1
  5689  5753  5759      1
  5690  5753  5760      1
  5691  5754  5761      1
  5692  5761  5762      1
  5693  5761  5763      1
  5694  5761  5764      1
  5695  5762  5765      1
  5696  5762  5766      1
  5697  5762  5767      1
  5698  5763  5768      1
  5699  5763  5769      1
  5700  5763  5770      1
  5701  5764  5771      1
  5702  5771  5772      1
  5703  5771  5773      1
  5704  5771  5774      1
  5705  5772  5775      1
  5706  5772  5776      1
  5707  5772  5777      1
  5708  5773  5778      1
  5709  5773  5779      1
  5710  5773  5780      1
  5711  5774  5781      1
  5712  5781  5782      1
  5713  5781  5783      1
  5714  5781  5784      1
  5715  5782  5785      1
  5716  5782  5786      1
  5717  5782  5787      1
  5718  5783  5788      1
  5719  5783  5789      1
  5720  5783  5790      1
  5721  5784  5791      1
  5722  5791  5792      1
  5723  5791  5793      1
  5724  5791  5794      1
  5725  5792  5795      1
  5726  5792  5796      1
  5727  5792  5797      1
  5728  5793  5798      1
  5729  5793  5799      1
  5730  5793  5800      1
  5731  5794  5801      1
  5732  5801  5802      1
  5733  5801  5803      1
  5734  5801  5804      1
  5735  5802  5805      1
  5736  5802  5806      1
  5737  5802  5807      1
  5738  5803  5808      1
  5739  5803  5809      1
  5740  5803  5810      1
  5741  5804  5811      1
  5742  5811  5812      1
  5743  5811  5813      1
  5744  5811  5814      1
  5745  5812  5815      1
  5746  5812  5816      1
  5747  5812  5817      1
  5748  5813  5818      1
  5749  5813  5819      1
  5750  5813  5820      1
  5751  5814  5821      1
  5752  5821  5822      1
  5753  5821  5823      1
  5754  5821  5824      1
  5755  5822  5825      1
  5756  5822  5826      1
  5757  5822  5827      1
  5758  5823  5828      1
  5759  5823  5829      1
  5760  5823  5830      1
  5761  5824  5831      1
  5762  5831  5832      1
  5763  5831  5833      1
  5764  5831  5834      1
  5765  5832  5835      1
  5766  5832  5836      1
  5767  5832  5837      1
  5768  5833  5838      1
  5769  5833  5839      1
  5770  5833  5840      1
  5771  5834  5841      1
  5772  5841  5842      1
  5773  5841  5843      1
  5774  5841  5844      1
  5775  5842  5845      1
  5776  5842  5846      1
  5777  5842  5847      1
  5778  5843  5848      1
  5779  5843  5849      1
  5780  5843  5850      1
  5781  5844  5851      1
  5782  5851  5852      1
  5783  5851  5853      1
  5784  5851  5854      1
  5785  5852  5855      1
  5786  5852  5856      1
  5787  5852  5857      1
  5788  5853  5858      1
  5789  5853  5859      1
  5790  5853  5860      1
  5791  5854  5861      1
  5792  5861  5862      1
  5793  5861  5863      1
  5794  5861  5864      1
  5795  5862  5865      1
  5796  5862  5866      1
  5797  5862  5867      1
  5798  5863  5868      1
  5799  5863  5869      1
  5800  5863  5870      1
  5801  5871  5872      1
  5802  5871  5873      1
  5803  5871  5874      1
  5804  5872  5875      1
  5805  5872  5876      1
  5806  5872  5877      1
  5807  5873  5878      1
  5808  5873  5879      1
  5809  5873  5880      1
  5810  5874  5881      1
  5811  5881  5882      1
  5812  5881  5883      1
  5813  5881  5884      1
  5814  5882  5885      1
  5815  5882  5886      1
  5816  5882  5887      1
  5817  5883  5888      1
  5818  5883  5889      1
  5819  5883  5890      1
  5820  5884  5891      1
  5821  5891  5892      1
  5822  5891  5893      1
  5823  5891  5894      1
  5824  5892  5895      1
  5825  5892  5896      1
  5826  5892  5897      1
  5827  5893  5898      1
  5828  5893  5899      1
  5829  5893  5900      1
  5830  5894  5901      1
  5831  5901  5902      1
  5832  5901  5903      1
  5833  5901  5904      1
  5834  5902  5905      1
  5835  5902  5906      1
  5836  5902  5907      1
  5837  5903  5908      1
  5838  5903  5909      1
  5839  5903  5910      1
  5840  5904  5911      1
  5841  5911  5912      1
  5842  5911  5913      1
  5843  5911  5914      1
  5844  5912  5915      1
  5845  5912  5916      1
  5846  5912  5917      1
  5847  5913  5918      1
  5848  5913  5919      1
  5849  5913  5920      1
  5850  5914  5921      1
  5851  5921  5922      1
  5852  5921  5923      1
  5853  5921  5924      1
  5854  5922  5925      1
  5855  5922  5926      1
  5856  5922  5927      1
  5857  5923  5928      1
  5858  5923  5929      1
  5859  5923  5930      1
  5860  5924  5931      1
  5861  5931  5932      1
  5862  5931  5933      1
  5863  5931  5934      1
  5864  5932  5935      1
  5865  5932  5936      1
  5866  5932  5937      1
  5867  5933  5938      1
  5868  5933  5939      1
  5869  5933  5940      1
  5870  5934  5941      1
  5871  5941  5942      1
  5872  5941  5943      1
  5873  5941  5944      1
  5874  5942  5945      1
  5875  5942  5946      1
  5876  5942  5947      1
  5877  5943  5948      1
  5878  5943  5949      1
  5879  5943  5950      1
  5880  5944  5951      1
  5881  5951  5952      1
  5882  5951  5953      1
  5883  5951  5954      1
  5884  5952  5955      1
  5885  5952  5956      1
  5886  5952  5957      1
  5887  5953  5958      1
  5888  5953  5959      1
  5889  5953  5960      1
  5890  5954  5961      1
  5891  5961  5962      1
  5892  5961  5963      1
  5893  5961  5964      1
  5894  5962  5965      1
  5895  5962  5966      1
  5896  5962  5967      1
  5897  5963  5968      1
  5898  5963  5969      1
  5899  5963  5970      1
  5900  5964  5971      1
  5901  5971  5972      1
  5902  5971  5973      1
  5903  5971  5974      1
  5904  5972  5975      1
  5905  5972  5976      1
  5906  5972  5977      1
  5907  5973  5978      1
  5908  5973  5979      1
  5909  5973  5980      1
  5910  5974  5981      1
  5911  5981  5982      1
  5912  5981  5983      1
  5913  5981  5984      1
  5914  5982  5985      1
  5915  5982  5986      1
  5916  5982  5987      1
  5917  5983  5988      1
  5918  5983  5989      1
  5919  5983  5990      1
  5920  5984  5991      1
  5921  5991  5992      1
  5922  5991  5993      1
  5923  5991  5994      1
  5924  5992  5995      1
  5925  5992  5996      1
  5926  5992  5997      1
  5927  5993  5998      1
  5928  5993  5999      1
  5929  5993  6000      1
  5930  5994  6001      1
  5931  6001  6002      1
  5932  6001  6003      1
  5933  6001  6004      1
  5934  6002  6005      1
  5935  6002  6006      1
  5936  6002  6007      1
  5937  6003  6008      1
  5938  6003  6009      1
  5939  6003  6010      1
  5940  6004  6011      1
  5941  6011  6012      1
  5942  6011  6013      1
  5943  6011  6014      1
  5944  6012  6015      1
  5945  6012  6016      1
  5946  6012  6017      1
  5947  6013  6018      1
  5948  6013  6019      1
  5949  6013  6020      1
  5950  6014  6021      1
  5951  6021  6022      1
  5952  6021  6023      1
  5953  6021  6024      1
  5954  6022  6025      1
  5955  6022  6026      1
  5956  6022  6027      1
  5957  6023  6028      1
  5958  6023  6029      1
  5959  6023  6030      1
  5960  6024  6031      1
  5961  6031  6032      1
  5962  6031  6033      1
  5963  6031  6034      1
  5964  6032  6035      1
  5965  6032  6036      1
  5966  6032  6037      1
  5967  6033  6038      1
  5968  6033  6039      1
  5969  6033  6040      1
  5970  6041  6042      1
  5971  6041  6043      1
  5972  6041  6044      1
  5973  6042  6045      1
  5974  6042  6046      1
  5975  6042  6047      1
  5976  6043  6048      1
  5977  6043  6049      1
  5978  6043  6050      1
  5979  6044  6051      1
  5980  6051  6052      1
  5981  6051  6053      1
  5982  6051  6054      1
  5983  6052  6055      1
  5984  6052  6056      1
  5985  6052  6057      1
  5986  6053  6058      1
  5987  6053  6059      1
  5988  6053  6060      1
  5989  6054  6061      1
  5990  6061  6062      1
  5991  6061  6063      1
  5992  6061  6064      1
  5993  6062  6065      1
  5994  6062  6066      1
  5995  6062  6067      1
  5996  6063  6068      1
  5997  6063  6069      1
  5998  6063  6070      1
  5999  6064  6071      1
  6000  6071  6072      1
  6001  6071  6073      1
  6002  6071  6074      1
  6003  6072  6075      1
  6004  6072  6076      1
  6005  6072  6077      1
  6006  6073  6078      1
  6007  6073  6079      1
  6008  6073  6080      1
  6009  6074  6081      1
  6010  6081  6082      1
  6011  6081  6083      1
  6012  6081  6084      1
  6013  6082  6085      1
  6014  6082  6086      1
  6015  6082  6087      1
  6016  6083  6088      1
  6017  6083  6089      1
  6018  6083  6090      1
  6019  6084  6091      1
  6020  6091  6092      1
  6021  6091  6093      1
  6022  6091  6094      1
  6023  6092  6095      1
  6024  6092  6096      1
  6025  6092  6097      1
  6026  6093  6098      1
  6027  6093  6099      1
  6028  6093  6100      1
  6029  6094  6101      1
  6030  6101  6102      1
  6031  6101  6103      1
  6032  6101  6104      1
  6033  6102  6105      1
  6034  6102  6106      1
  6035  6102  6107      1
  6036  6103  6108      1
  6037  6103  6109      1
  6038  6103  6110      1
  6039  6104  6111      1
  6040  6111  6112      1
  6041  6111  6113      1
  6042  6111  6114      1
  6043  6112  6115      1
  6044  6112  6116      1
  6045  6112  6117      1
  6046  6113  6118      1
  6047  6113  6119      1
  6048  6113  6120      1
  6049  6114  6121      1
  6050  6121  6122      1
  6051  6121  6123      1
  6052  6121  6124      1
  6053  6122  6125      1
  6054  6122  6126      1
  6055  6122  6127      1
  6056  6123  6128      1
  6057  6123  6129      1
  6058  6123  6130      1
  6059  6124  6131      1
  6060  6131  6132      1
  6061  6131  6133      1
  6062  6131  6134      1
  6063  6132  6135      1
  6064  6132  6136      1
  6065  6132  6137      1
  6066  6133  6138      1
  6067  6133  6139      1
  6068  6133  6140      1
  6069  6134  6141      1
  6070  6141  6142      1
  6071  6141  6143      1
  6072  6141  6144      1
  6073  6142  6145      1
  6074  6142  6146      1
  6075  6142  6147      1
  6076  6143  6148      1
  6077  6143  6149      1
  6078  6143  6150      1
  6079  6144  6151      1
  6080  6151  6152      1
  6081  6151  6153      1
  6082  6151  6154      1
  6083  6152  6155      1
  6084  6152  6156      1
  6085  6152  6157      1
  6086  6153  6158      1
  6087  6153  6159      1
  6088  6153  6160      1
  6089  6154  6161      1
  6090  6161  6162      1
  6091  6161  6163      1
  6092  6161  6164      1
  6093  6162  6165      1
  6094  6162  6166      1
  6095  6162  6167      1
  6096  6163  6168      1
  6097  6163  6169      1
  6098  6163  6170      1
  6099  6164  6171      1
  6100  6171  6172      1
  6101  6171  6173      1
  6102  6171  6174      1
  6103  6172  6175      1
  6104  6172  6176      1
  6105  6172  6177      1
  6106  6173  6178      1
  6107  6173  6179      1
  6108  6173  6180      1
  6109  6174  6181      1
  6110  6181  6182      1
  6111  6181  6183      1
  6112  6181  6184      1
  6113  6182  6185      1
  6114  6182  6186      1
  6115  6182  6187      1
  6116  6183  6188      1
  6117  6183  6189      1
  6118  6183  6190      1
  6119  6184  6191      1
  6120  6191  6192      1
  6121  6191  6193      1
  6122  6191  6194      1
  6123  6192  6195      1
  6124  6192  6196      1
  6125  6192  6197      1
  6126  6193  6198      1
  6127  6193  6199      1
  6128  6193  6200      1
  6129  6194  6201      1
  6130  6201  6202      1
  6131  6201  6203      1
  6132  6201  6204      1
  6133  6202  6205      1
  6134  6202  6206      1
  6135  6202  6207      1
  6136  6203  6208      1
  6137  6203  6209      1
  6138  6203  6210      1
  6139  6211  6212      1
  6140  6211  6213      1
  6141  6211  6214      1
  6142  6212  6215      1
  6143  6212  6216      1
  6144  6212  6217      1
  6145  6213  6218      1
  6146  6213  6219      1
  6147  6213  6220      1
  6148  6214  6221      1
  6149  6221  6222      1
  6150  6221  6223      1
  6151  6221  6224      1
  6152  6222  6225      1
  6153  6222  6226      1
  6154  6222  6227      1
  6155  6223  6228      1
  6156  6223  6229      1
  6157  6223  6230      1
  6158  6224  6231      1
  6159  6231  6232      1
  6160  6231  6233      1
  6161  6231  6234      1
  6162  6232  6235      1
  6163  6232  6236      1
  6164  6232  6237      1
  6165  6233  6238      1
  6166  6233  6239      1
  6167  6233  6240      1
  6168  6234  6241      1
  6169  6241  6242      1
  6170  6241  6243      1
  6171  6241  6244      1
  6172  6242  6245      1
  6173  6242  6246      1
  6174  6242  6247      1
  6175  6243  6248      1
  6176  6243  6249      1
  6177  6243  6250      1
  6178  6244  6251      1
  6179  6251  6252      1
  6180  6251  6253      1
  6181  6251  6254      1
  6182  6252  6255      1
  6183  6252  6256      1
  6184  6252  6257      1
  6185  6253  6258      1
  6186  6253  6259      1
  6187  6253  6260      1
  6188  6254  6261      1
  6189  6261  6262      1
  6190  6261  6263      1
  6191  6261  6264      1
  6192  6262  6265      1
  6193  6262  6266      1
  6194  6262  6267      1
  6195  6263  6268      1
  6196  6263  6269      1
  6197  6263  6270      1
  6198  6264  6271      1
  6199  6271  6272      1
  6200  6271  6273      1
  6201  6271  6274      1
  6202  6272  6275      1
  6203  6272  6276      1
  6204  6272  6277      1
  6205  6273  6278      1
  6206  6273  6279      1
  6207  6273  6280      1
  6208  6274  6281      1
  6209  6281  6282      1
  6210  6281  6283      1
  6211  6281  6284      1
  6212  6282  6285      1
  6213  6282  6286      1
  6214  6282  6287      1
  6215  6283  6288      1
  6216  6283  6289      1
  6217  6283  6290      1
  6218  6284  6291      1
  6219  6291  6292      1
  6220  6291  6293      1
  6221  6291  6294      1
  6222  6292  6295      1
  6223  6292  6296      1
  6224  6292  6297      1
  6225  6293  6298      1
  6226  6293  6299      1
  6227  6293  6300      1
  6228  6294  6301      1
  6229  6301  6302      1
  6230  6301  6303      1
  6231  6301  6304      1
  6232  6302  6305      1
  6233  6302  6306      1
  6234  6302  6307      1
  6235  6303  6308      1
  6236  6303  6309      1
  6237  6303  6310      1
  6238  6304  6311      1
  6239  6311  6312      1
  6240  6311  6313      1
  6241  6311  6314      1
  6242  6312  6315      1
  6243  6312  6316      1
  6244  6312  6317      1
  6245  6313  6318      1
  6246  6313  6319      1
  6247  6313  6320      1
  6248  6314  6321      1
  6249  6321  6322      1
  6250  6321  6323      1
  6251  6321  6324      1
  6252  6322  6325      1
  6253  6322  6326      1
  6254  6322  6327      1
  6255  6323  6328      1
  6256  6323  6329      1
  6257  6323  6330      1
  6258  6324  6331      1
  6259  6331  6332      1
  6260  6331  6333      1
  6261  6331  6334      1
  6262  6332  6335      1
  6263  6332  6336      1
  6264  6332  6337      1
  6265  6333  6338      1
  6266  6333  6339      1
  6267  6333  6340      1
  6268  6334  6341      1
  6269  6341  6342      1
  6270  6341  6343      1
  6271  6341  6344      1
  6272  6342  6345      1
  6273  6342  6346      1
  6274  6342  6347      1
  6275  6343  6348      1
  6276  6343  6349      1
  6277  6343  6350      1
  6278  6344  6351      1
  6279  6351  6352      1
  6280  6351  6353      1
  6281  6351  6354      1
  6282  6352  6355      1
  6283  6352  6356      1
  6284  6352  6357      1
  6285  6353  6358      1
  6286  6353  6359      1
  6287  6353  6360      1
  6288  6361  6362      1
  6289  6361  6363      1
  6290  6361  6364      1
  6291  6362  6365      1
  6292  6362  6366      1
  6293  6362  6367      1
  6294  6363  6368      1
  6295  6363  6369      1
  6296  6363  6370      1
  6297  6364  6371      1
  6298  6371  6372      1
  6299  6371  6373      1
  6300  6371  6374      1
  6301  6372  6375      1
  6302  6372  6376      1
  6303  6372  6377      1
  6304  6373  6378      1
  6305  6373  6379      1
  6306  6373  6380      1
  6307  6374  6381      1
  6308  6381  6382      1
  6309  6381  6383      1
  6310  6381  6384      1
  6311  6382  6385      1
  6312  6382  6386      1
  6313  6382  6387      1
  6314  6383  6388      1
  6315  6383  6389      1
  6316  6383  6390      1
  6317  6384  6391      1
  6318  6391  6392      1
  6319  6391  6393      1
  6320  6391  6394      1
  6321  6392  6395      1
  6322  6392  6396      1
  6323  6392  6397      1
  6324  6393  6398      1
  6325  6393  6399      1
  6326  6393  6400      1
  6327  6394  6401      1
  6328  6401  6402      1
  6329  6401  6403      1
  6330  6401  6404      1
  6331  6402  6405      1
  6332  6402  6406      1
  6333  6402  6407      1
  6334  6403  6408      1
  6335  6403  6409      1
  6336  6403  6410      1
  6337  6404  6411      1
  6338  6411  6412      1
  6339  6411  6413      1
  6340  6411  6414      1
  6341  6412  6415      1
  6342  6412  6416      1
  6343  6412  6417      1
  6344  6413  6418      1
  6345  6413  6419      1
  6346  6413  6420      1
  6347  6414  6421      1
  6348  6421  6422      1
  6349  6421  6423      1
  6350  6421  6424      1
  6351  6422  6425      1
  6352  6422  6426      1
  6353  6422  6427      1
  6354  6423  6428      1
  6355  6423  6429      1
  6356  6423  6430      1
  6357  6424  6431      1
  6358  6431  6432      1
  6359  6431  6433      1
  6360  6431  6434      1
  6361  6432  6435      1
  6362  6432  6436      1
  6363  6432  6437      1
  6364  6433  6438      1
  6365  6433  6439      1
  6366  6433  6440      1
  6367  6434  6441      1
  6368  6441  6442      1
  6369  6441  6443      1
  6370  6441  6444      1
  6371  6442  6445      1
  6372  6442  6446      1
  6373  6442  6447      1
  6374  6443  6448      1
  6375  6443  6449      1
  6376  6443  6450      1
  6377  6444  6451      1
  6378  6451  6452      1
  6379  6451  6453      1
  6380  6451  6454      1
  6381  6452  6455      1
  6382  6452  6456      1
  6383  6452  6457      1
  6384  6453  6458      1
  6385  6453  6459      1
  6386  6453  6460      1
  6387  6454  6461      1
  6388  6461  6462      1
  6389  6461  6463      1
  6390  6461  6464      1
  6391  6462  6465      1
  6392  6462  6466      1
  6393  6462  6467      1
  6394  6463  6468      1
  6395  6463  6469      1
  6396  6463  6470      1
  6397  6464  6471      1
  6398  6471  6472      1
  6399  6471  6473      1
  6400  6471  6474      1
  6401  6472  6475      1
  6402  6472  6476      1
  6403  6472  6477      1
  6404  6473  6478      1
  6405  6473  6479      1
  6406  6473  6480      1
  6407  6474  6481      1
  6408  6481  6482      1
  6409  6481  6483      1
  6410  6481  6484      1
  6411  6482  6485      1
  6412  6482  6486      1
  6413  6482  6487      1
  6414  6483  6488      1
  6415  6483  6489      1
  6416  6483  6490      1
  6417  6484  6491      1
  6418  6491  6492      1
  6419  6491  6493      1
  6420  6491  6494      1
  6421  6492  6495      1
  6422  6492  6496      1
  6423  6492  6497      1
  6424  6493  6498      1
  6425  6493  6499      1
  6426  6493  6500      1
  6427  6494  6501      1
  6428  6501  6502      1
  6429  6501  6503      1
  6430  6501  6504      1
  6431  6502  6505      1
  6432  6502  6506      1
  6433  6502  6507      1
  6434  6503  6508      1
  6435  6503  6509      1
  6436  6503  6510      1
  6437  6511  6512      1
  6438  6511  6513      1
  6439  6511  6514      1
  6440  6512  6515      1
  6441  6512  6516      1
  6442  6512  6517      1
  6443  6513  6518      1
  6444  6513  6519      1
  6445  6513  6520      1
  6446  6514  6521      1
  6447  6521  6522      1
  6448  6521  6523      1
  6449  6521  6524      1
  6450  6522  6525      1
  6451  6522  6526      1
  6452  6522  6527      1
  6453  6523  6528      1
  6454  6523  6529      1
  6455  6523  6530      1
  6456  6524  6531      1
  6457  6531  6532      1
  6458  6531  6533      1
  6459  6531  6534      1
  6460  6532  6535      1
  6461  6532  6536      1
  6462  6532  6537      1
  6463  6533  6538      1
  6464  6533  6539      1
  6465  6533  6540      1
  6466  6534  6541      1
  6467  6541  6542      1
  6468  6541  6543      1
  6469  6541  6544      1
  6470  6542  6545      1
  6471  6542  6546      1
  6472  6542  6547      1
  6473  6543  6548      1
  6474  6543  6549      1
  6475  6543  6550      1
  6476  6544  6551      1
  6477  6551  6552      1
  6478  6551  6553      1
  6479  6551  6554      1
  6480  6552  6555      1
  6481  6552  6556      1
  6482  6552  6557      1
  6483  6553  6558      1
  6484  6553  6559      1
  6485  6553  6560      1
  6486  6554  6561      1
  6487  6561  6562      1
  6488  6561  6563      1
  6489  6561  6564      1
  6490  6562  6565      1
  6491  6562  6566      1
  6492  6562  6567      1
  6493  6563  6568      1
  6494  6563  6569      1
  6495  6563  6570      1
  6496  6564  6571      1
  6497  6571  6572      1
  6498  6571  6573      1
  6499  6571  6574      1
  6500  6572  6575      1
  6501  6572  6576      1
  6502  6572  6577      1
  6503  6573  6578      1
  6504  6573  6579      1
  6505  6573  6580      1
  6506  6574  6581      1
  6507  6581  6582      1
  6508  6581  6583      1
  6509  6581  6584      1
  6510  6582  6585      1
  6511  6582  6586      1
  6512  6582  6587      1
  6513  6583  6588      1
  6514  6583  6589      1
  6515  6583  6590      1
  6516  6584  6591      1
  6517  6591  6592      1
  6518  6591  6593      1
  6519  6591  6594      1
  6520  6592  6595      1
  6521  6592  6596      1
  6522  6592  6597      1
  6523  6593  6598      1
  6524  6593  6599      1
  6525  6593  6600      1
  6526  6594  6601      1
  6527  6601  6602      1
  6528  6601  6603      1
  6529  6601  6604      1
  6530  6602  6605      1
  6531  6602  6606      1
  6532  6602  6607      1
  6533  6603  6608      1
  6534  6603  6609      1
  6535  6603  6610      1
  6536  6604  6611      1
  6537  6611  6612      1
  6538  6611  6613      1
  6539  6611  6614      1
  6540  6612  6615      1
  6541  6612  6616      1
  6542  6612  6617      1
  6543  6613  6618      1
  6544  6613  6619      1
  6545  6613  6620      1
  6546  6614  6621      1
  6547  6621  6622      1
  6548  6621  6623      1
  6549  6621  6624      1
  6550  6622  6625      1
  6551  6622  6626      1
  6552  6622  6627      1
  6553  6623  6628      1
  6554  6623  6629      1
  6555  6623  6630      1
  6556  6624  6631      1
  6557  6631  6632      1
  6558  6631  6633      1
  6559  6631  6634      1
  6560  6632  6635      1
  6561  6632  6636      1
  6562  6632  6637      1
  6563  6633  6638      1
  6564  6633  6639      1
  6565  6633  6640      1
  6566  6634  6641      1
  6567  6641  6642      1
  6568  6641  6643      1
  6569  6641  6644      1
  6570  6642  6645      1
  6571  6642  6646      1
  6572  6642  6647      1
  6573  6643  6648      1
  6574  6643  6649      1
  6575  6643  6650      1
  6576  6644  6651      1
  6577  6651  6652      1
  6578  6651  6653      1
  6579  6651  6654      1
  6580  6652  6655      1
  6581  6652  6656      1
  6582  6652  6657      1
  6583  6653  6658      1
  6584  6653  6659      1
  6585  6653  6660      1
  6586  6654  6661      1
  6587  6661  6662      1
  6588  6661  6663      1
  6589  6661  6664      1
  6590  6662  6665      1
  6591  6662  6666      1
  6592  6662  6667      1
  6593  6663  6668      1
  6594  6663  6669      1
  6595  6663  6670      1
  6596  6671  6672      1
  6597  6671  6673      1
  6598  6671  6674      1
  6599  6672  6675      1
  6600  6672  6676      1
  6601  6672  6677      1
  6602  6673  6678      1
  6603  6673  6679      1
  6604  6673  6680      1
  6605  6674  6681      1
  6606  6681  6682      1
  6607  6681  6683      1
  6608  6681  6684      1
  6609  6682  6685      1
  6610  6682  6686      1
  6611  6682  6687      1
  6612  6683  6688      1
  6613  6683  6689      1
  6614  6683  6690      1
  6615  6684  6691      1
  6616  6691  6692      1
  6617  6691  6693      1
  6618  6691  6694      1
  6619  6692  6695      1
  6620  6692  6696      1
  6621  6692  6697      1
  6622  6693  6698      1
  6623  6693  6699      1
  6624  6693  6700      1
  6625  6694  6701      1
  6626  6701  6702      1
  6627  6701  6703      1
  6628  6701  6704      1
  6629  6702  6705      1
  6630  6702  6706      1
  6631  6702  6707      1
  6632  6703  6708      1
  6633  6703  6709      1
  6634  6703  6710      1
  6635  6704  6711      1
  6636  6711  6712      1
  6637  6711  6713      1
  6638  6711  6714      1
  6639  6712  6715      1
  6640  6712  6716      1
  6641  6712  6717      1
  6642  6713  6718      1
  6643  6713  6719      1
  6644  6713  6720      1
  6645  6714  6721      1
  6646  6721  6722      1
  6647  6721  6723      1
  6648  6721  6724      1
  6649  6722  6725      1
  6650  6722  6726      1
  6651  6722  6727      1
  6652  6723  6728      1
  6653  6723  6729      1
  6654  6723  6730      1
  6655  6724  6731      1
  6656  6731  6732      1
  6657  6731  6733      1
  6658  6731  6734      1
  6659  6732  6735      1
  6660  6732  6736      1
  6661  6732  6737      1
  6662  6733  6738      1
  6663  6733  6739      1
  6664  6733  6740      1
  6665  6734  6741      1
  6666  6741  6742      1
  6667  6741  6743      1
  6668  6741  6744      1
  6669  6742  6745      1
  6670  6742  6746      1
  6671  6742  6747      1
  6672  6743  6748      1
  6673  6743  6749      1
  6674  6743  6750      1
  6675  6744  6751      1
  6676  6751  6752      1
  6677  6751  6753      1
  6678  6751  6754      1
  6679  6752  6755      1
  6680  6752  6756      1
  6681  6752  6757      1
  6682  6753  6758      1
  6683  6753  6759      1
  6684  6753  6760      1
  6685  6754  6761      1
  6686  6761  6762      1
  6687  6761  6763      1
  6688  6761  6764      1
  6689  6762  6765      1
  6690  6762  6766      1
  6691  6762  6767      1
  6692  6763  6768      1
  6693  6763  6769      1
  6694  6763  6770      1
  6695  6764  6771      1
  6696  6771  6772      1
  6697  6771  6773      1
  6698  6771  6774      1
  6699  6772  6775      1
  6700  6772  6776      1
  6701  6772  6777      1
  6702  6773  6778      1
  6703  6773  6779      1
  6704  6773  6780      1
  6705  6774  6781      1
  6706  6781  6782      1
  6707  6781  6783      1
  6708  6781  6784      1
  6709  6782  6785      1
  6710  6782  6786      1
  6711  6782  6787      1
  6712  6783  6788      1
  6713  6783  6789      1
  6714  6783  6790      1
  6715  6784  6791      1
  6716  6791  6792      1
  6717  6791  6793      1
  6718  6791  6794      1
  6719  6792  6795      1
  6720  6792  6796      1
  6721  6792  6797      1
  6722  6793  6798      1
  6723  6793  6799      1
  6724  6793  6800      1
  6725  6794  6801      1
  6726  6801  6802      1
  6727  6801  6803      1
  6728  6801  6804      1
  6729  6802  6805      1
  6730  6802  6806      1
  6731  6802  6807      1
  6732  6803  6808      1
  6733  6803  6809      1
  6734  6803  6810      1
  6735  6811  6812      1
  6736  6811  6813      1
  6737  6811  6814      1
  6738  6812  6815      1
  6739  6812  6816      1
  6740  6812  6817      1
  6741  6813  6818      1
  6742  6813  6819      1
  6743  6813  6820      1
  6744  6814  6821      1
  6745  6821  6822      1
  6746  6821  6823      1
  6747  6821  6824      1
  6748  6822  6825      1
  6749  6822  6826      1
  6750  6822  6827      1
  6751  6823  6828      1
  6752  6823  6829      1
  6753  6823  6830      1
  6754  6824  6831      1
  6755  6831  6832      1
  6756  6831  6833      1
  6757  6831  6834      1
  6758  6832  6835      1
  6759  6832  6836      1
  6760  6832  6837      1
  6761  6833  6838      1
  6762  6833  6839      1
  6763  6833  6840      1
  6764  6834  6841      1
  6765  6841  6842      1
  6766  6841  6843      1
  6767  6841  6844      1
  6768  6842  6845      1
  6769  6842  6846      1
  6770  6842  6847      1
  6771  6843  6848      1
  6772  6843  6849      1
  6773  6843  6850      1
  6774  6844  6851      1
  6775  6851  6852      1
  6776  6851  6853      1
  6777  6851  6854      1
  6778  6852  6855      1
  6779  6852  6856      1
  6780  6852  6857      1
  6781  6853  6858      1
  6782  6853  6859      1
  6783  6853  6860      1
  6784  6854  6861      1
  6785  6861  6862      1
  6786  6861  6863      1
  6787  6861  6864      1
  6788  6862  6865      1
  6789  6862  6866      1
  6790  6862  6867      1
  6791  6863  6868      1
  6792  6863  6869      1
  6793  6863  6870      1
  6794  6864  6871      1
  6795  6871  6872      1
  6796  6871  6873      1
  6797  6871  6874      1
  6798  6872  6875      1
  6799  6872  6876      1
  6800  6872  6877      1
  6801  6873  6878      1
  6802  6873  6879      1
  6803  6873  6880      1
  6804  6874  6881      1
  6805  6881  6882      1
  6806  6881  6883      1
  6807  6881  6884      1
  6808  6882  6885      1
  6809  6882  6886      1
  6810  6882  6887      1
  6811  6883  6888      1
  6812  6883  6889      1
  6813  6883  6890      1
  6814  6884  6891      1
  6815  6891  6892      1
  6816  6891  6893      1
  6817  6891  6894      1
  6818  6892  6895      1
  6819  6892  6896      1
  6820  6892  6897      1
  6821  6893  6898      1
  6822  6893  6899      1
  6823  6893  6900      1
  6824  6894  6901      1
  6825  6901  6902      1
  6826  6901  6903      1
  6827  6901  6904      1
  6828  6902  6905      1
  6829  6902  6906      1
  6830  6902  6907      1
  6831  6903  6908      1
  6832  6903  6909      1
  6833  6903  6910      1
  6834  6904  6911      1
  6835  6911  6912      1
  6836  6911  6913      1
  6837  6911  6914      1
  6838  6912  6915      1
  6839  6912  6916      1
  6840  6912  6917      1
  6841  6913  6918      1
  6842  6913  6919      1
  6843  6913  6920      1
  6844  6914  6921      1
  6845  6921  6922      1
  6846  6921  6923      1
  6847  6921  6924      1
  6848  6922  6925      1
  6849  6922  6926      1
  6850  6922  6927      1
  6851  6923  6928      1
  6852  6923  6929      1
  6853  6923  6930      1
  6854  6924  6931      1
  6855  6931  6932      1
  6856  6931  6933      1
  6857  6931  6934      1
  6858  6932  6935      1
  6859  6932  6936      1
  6860  6932  6937      1
  6861  6933  6938      1
  6862  6933  6939      1
  6863  6933  6940      1
  6864  6934  6941      1
  6865  6941  6942      1
  6866  6941  6943      1
  6867  6941  6944      1
  6868  6942  6945      1
  6869  6942  6946      1
  6870  6942  6947      1
  6871  6943  6948      1
  6872  6943  6949      1
  6873  6943  6950      1
  6874  6944  6951      1
  6875  6951  6952      1
  6876  6951  6953      1
  6877  6951  6954      1
  6878  6952  6955      1
  6879  6952  6956      1
  6880  6952  6957      1
  6881  6953  6958      1
  6882  6953  6959      1
  6883  6953  6960      1
  6884  6954  6961      1
  6885  6961  6962      1
  6886  6961  6963      1
  6887  6961  6964      1
  6888  6962  6965      1
  6889  6962  6966      1
  6890  6962  6967      1
  6891  6963  6968      1
  6892  6963  6969      1
  6893  6963  6970      1
  6894  6964  6971      1
  6895  6971  6972      1
  6896  6971  6973      1
  6897  6971  6974      1
  6898  6972  6975      1
  6899  6972  6976      1
  6900  6972  6977      1
  6901  6973  6978      1
  6902  6973  6979      1
  6903  6973  6980      1
  6904  6974  6981      1
  6905  6981  6982      1
  6906  6981  6983      1
  6907  6981  6984      1
  6908  6982  6985      1
  6909  6982  6986      1
  6910  6982  6987      1
  6911  6983  6988      1
  6912  6983  6989      1
  6913  6983  6990      1
  6914  6984  6991      1
  6915  6991  6992      1
  6916  6991  6993      1
  6917  6991  6994      1
  6918  6992  6995      1
  6919  6992  6996      1
  6920  6992  6997      1
  6921  6993  6998      1
  6922  6993  6999      1
  6923  6993  7000      1
  6924  6994  7001      1
  6925  7001  7002      1
  6926  7001  7003      1
  6927  7001  7004      1
  6928  7002  7005      1
  6929  7002  7006      1
  6930  7002  7007      1
  6931  7003  7008      1
  6932  7003  7009      1
  6933  7003  7010      1
  6934  7011  7012      1
  6935  7011  7013      1
  6936  7011  7014      1
  6937  7012  7015      1
  6938  7012  7016      1
  6939  7012  7017      1
  6940  7013  7018      1
  6941  7013  7019      1
  6942  7013  7020      1
  6943  7014  7021      1
  6944  7021  7022      1
  6945  7021  7023      1
  6946  7021  7024      1
  6947  7022  7025      1
  6948  7022  7026      1
  6949  7022  7027      1
  6950  7023  7028      1
  6951  7023  7029      1
  6952  7023  7030      1
  6953  7024  7031      1
  6954  7031  7032      1
  6955  7031  7033      1
  6956  7031  7034      1
  6957  7032  7035      1
  6958  7032  7036      1
  6959  7032  7037      1
  6960  7033  7038      1
  6961  7033  7039      1
  6962  7033  7040      1
  6963  7034  7041      1
  6964  7041  7042      1
  6965  7041  7043      1
  6966  7041  7044      1
  6967  7042  7045      1
  6968  7042  7046      1
  6969  7042  7047      1
  6970  7043  7048      1
  6971  7043  7049      1
  6972  7043  7050      1
  6973  7044  7051      1
  6974  7051  7052      1
  6975  7051  7053      1
  6976  7051  7054      1
  6977  7052  7055      1
  6978  7052  7056      1
  6979  7052  7057      1
  6980  7053  7058      1
  6981  7053  7059      1
  6982  7053  7060      1
  6983  7054  7061      1
  6984  7061  7062      1
  6985  7061  7063      1
  6986  7061  7064      1
  6987  7062  7065      1
  6988  7062  7066      1
  6989  7062  7067      1
  6990  7063  7068      1
  6991  7063  7069      1
  6992  7063  7070      1
  6993  7064  7071      1
  6994  7071  7072      1
  6995  7071  7073      1
  6996  7071  7074      1
  6997  7072  7075      1
  6998  7072  7076      1
  6999  7072  7077      1
  7000  7073  7078      1
  7001  7073  7079      1
  7002  7073  7080      1
  7003  7074  7081      1
  7004  7081  7082      1
  7005  7081  7083      1
  7006  7081  7084      1
  7007  7082  7085      1
  7008  7082  7086      1
  7009  7082  7087      1
  7010  7083  7088      1
  7011  7083  7089      1
  7012  7083  7090      1
  7013  7084  7091      1
  7014  7091  7092      1
  7015  7091  7093      1
  7016  7091  7094      1
  7017  7092  7095      1
  7018  7092  7096      1
  7019  7092  7097      1
  7020  7093  7098      1
  7021  7093  7099      1
  7022  7093  7100      1
  7023  7094  7101      1
  7024  7101  7102      1
  7025  7101  7103      1
  7026  7101  7104      1
  7027  7102  7105      1
  7028  7102  7106      1
  7029  7102  7107      1
  7030  7103  7108      1
  7031  7103  7109      1
  7032  7103  7110      1
  7033  7104  7111      1
  7034  7111  7112      1
  7035  7111  7113      1
  7036  7111  7114      1
  7037  7112  7115      1
  7038  7112  7116      1
  7039  7112  7117      1
  7040  7113  7118      1
  7041  7113  7119      1
  7042  7113  7120      1
  7043  7114  7121      1
  7044  7121  7122      1
  7045  7121  7123      1
  7046  7121  7124      1
  7047  7122  7125      1
  7048  7122  7126      1
  7049  7122  7127      1
  7050  7123  7128      1
  7051  7123  7129      1
  7052  7123  7130      1
  7053  7124  7131      1
  7054  7131  7132      1
  7055  7131  7133      1
  7056  7131  7134      1
  7057  7132  7135      1
  7058  7132  7136      1
  7059  7132  7137      1
  7060  7133  7138      1
  7061  7133  7139      1
  7062  7133  7140      1
  7063  7134  7141      1
  7064  7141  7142      1
  7065  7141  7143      1
  7066  7141  7144      1
  7067  7142  7145      1
  7068  7142  7146      1
  7069  7142  7147      1
  7070  7143  7148      1
  7071  7143  7149      1
  7072  7143  7150      1
  7073  7144  7151      1
  7074  7151  7152      1
  7075  7151  7153      1
  7076  7151  7154      1
  7077  7152  7155      1
  7078  7152  7156      1
  7079  7152  7157      1
  7080  7153  7158      1
  7081  7153  7159      1
  7082  7153  7160      1
  7083  7154  7161      1
  7084  7161  7162      1
  7085  7161  7163      1
  7086  7161  7164      1
  7087  7162  7165      1
  7088  7162  7166      1
  7089  7162  7167      1
  7090  7163  7168      1
  7091  7163  7169      1
  7092  7163  7170      1
  7093  7164  7171      1
  7094  7171  7172      1
  7095  7171  7173      1
  7096  7171  7174      1
  7097  7172  7175      1
  7098  7172  7176      1
  7099  7172  7177      1
  7100  7173  7178      1
  7101  7173  7179      1
  7102  7173  7180      1
  7103  7174  7181      1
  7104  7181  7182      1
  7105  7181  7183      1
  7106  7181  7184      1
  7107  7182  7185      1
  7108  7182  7186      1
  7109  7182  7187      1
  7110  7183  7188      1
  7111  7183  7189      1
  7112  7183  7190      1
  7113  7184  7191      1
  7114  7191  7192      1
  7115  7191  7193      1
  7116  7191  7194      1
  7117  7192  7195      1
  7118  7192  7196      1
  7119  7192  7197      1
  7120  7193  7198      1
  7121  7193  7199      1
  7122  7193  7200      1
  7123  7201  7202      1
  7124  7201  7203      1
  7125  7201  7204      1
  7126  7202  7205      1
  7127  7202  7206      1
  7128  7202  7207      1
  7129  7203  7208      1
  7130  7203  7209      1
  7131  7203  7210      1
  7132  7204  7211      1
  7133  7211  7212      1
  7134  7211  7213      1
  7135  7211  7214      1
  7136  7212  7215      1
  7137  7212  7216      1
  7138  7212  7217      1
  7139  7213  7218      1
  7140  7213  7219      1
  7141  7213  7220      1
  7142  7214  7221      1
  7143  7221  7222      1
  7144  7221  7223      1
  7145  7221  7224      1
  7146  7222  7225      1
  7147  7222  7226      1
  7148  7222  7227      1
  7149  7223  7228      1
  7150  7223  7229      1
  7151  7223  7230      1
  7152  7224  7231      1
  7153  7231  7232      1
  7154  7231  7233      1
  7155  7231  7234      1
  7156  7232  7235      1
  7157  7232  7236      1
  7158  7232  7237      1
  7159  7233  7238      1
  7160  7233  7239      1
  7161  7233  7240      1
  7162  7234  7241      1
  7163  7241  7242      1
  7164  7241  7243      1
  7165  7241  7244      1
  7166  7242  7245      1
  7167  7242  7246      1
  7168  7242  7247      1
  7169  7243  7248      1
  7170  7243  7249      1
  7171  7243  7250      1
  7172  7244  7251      1
  7173  7251  7252      1
  7174  7251  7253      1
  7175  7251  7254      1
  7176  7252  7255      1
  7177  7252  7256      1
  7178  7252  7257      1
  7179  7253  7258      1
  7180  7253  7259      1
  7181  7253  7260      1
  7182  7254  7261      1
  7183  7261  7262      1
  7184  7261  7263      1
  7185  7261  7264      1
  7186  7262  7265      1
  7187  7262  7266      1
  7188  7262  7267      1
  7189  7263  7268      1
  7190  7263  7269      1
  7191  7263  7270      1
  7192  7264  7271      1
  7193  7271  7272      1
  7194  7271  7273      1
  7195  7271  7274      1
  7196  7272  7275      1
  7197  7272  7276      1
  7198  7272  7277      1
  7199  7273  7278      1
  7200  7273  7279      1
  7201  7273  7280      1
  7202  7274  7281      1
  7203  7281  7282      1
  7204  7281  7283      1
  7205  7281  7284      1
  7206  7282  7285      1
  7207  7282  7286      1
  7208  7282  7287      1
  7209  7283  7288      1
  7210  7283  7289      1
  7211  7283  7290      1
  7212  7284  7291      1
  7213  7291  7292      1
  7214  7291  7293      1
  7215  7291  7294      1
  7216  7292  7295      1
  7217  7292  7296      1
  7218  7292  7297      1
  7219  7293  7298      1
  7220  7293  7299      1
  7221  7293  7300      1
  7222  7294  7301      1
  7223  7301  7302      1
  7224  7301  7303      1
  7225  7301  7304      1
  7226  7302  7305      1
  7227  7302  7306      1
  7228  7302  7307      1
  7229  7303  7308      1
  7230  7303  7309      1
  7231  7303  7310      1
  7232  7304  7311      1
  7233  7311  7312      1
  7234  7311  7313      1
  7235  7311  7314      1
  7236  7312  7315      1
  7237  7312  7316      1
  7238  7312  7317      1
  7239  7313  7318      1
  7240  7313  7319      1
  7241  7313  7320      1
  7242  7314  7321      1
  7243  7321  7322      1
  7244  7321  7323      1
  7245  7321  7324      1
  7246  7322  7325      1
  7247  7322  7326      1
  7248  7322  7327      1
  7249  7323  7328      1
  7250  7323  7329      1
  7251  7323  7330      1
  7252  7324  7331      1
  7253  7331  7332      1
  7254  7331  7333      1
  7255  7331  7334      1
  7256  7332  7335      1
  7257  7332  7336      1
  7258  7332  7337      1
  7259  7333  7338      1
  7260  7333  7339      1
  7261  7333  7340      1
  7262  7334  7341      1
  7263  7341  7342      1
  7264  7341  7343      1
  7265  7341  7344      1
  7266  7342  7345      1
  7267  7342  7346      1
  7268  7342  7347      1
  7269  7343  7348      1
  7270  7343  7349      1
  7271  7343  7350      1
  7272  7344  7351      1
  7273  7351  7352      1
  7274  7351  7353      1
  7275  7351  7354      1
  7276  7352  7355      1
  7277  7352  7356      1
  7278  7352  7357      1
  7279  7353  7358      1
  7280  7353  7359      1
  7281  7353  7360      1
  7282  7354  7361      1
  7283  7361  7362      1
  7284  7361  7363      1
  7285  7361  7364      1
  7286  7362  7365      1
  7287  7362  7366      1
  7288  7362  7367      1
  7289  7363  7368      1
  7290  7363  7369      1
  7291  7363  7370      1
  7292  7364  7371      1
  7293  7371  7372      1
  7294  7371  7373      1
  7295  7371  7374      1
  7296  7372  7375      1
  7297  7372  7376      1
  7298  7372  7377      1
  7299  7373  7378      1
  7300  7373  7379      1
  7301  7373  7380      1
  7302  7374  7381      1
  7303  7381  7382      1
  7304  7381  7383      1
  7305  7381  7384      1
  7306  7382  7385      1
  7307  7382  7386      1
  7308  7382  7387      1
  7309  7383  7388      1
  7310  7383  7389      1
  7311  7383  7390      1
  7312  7384  7391      1
  7313  7391  7392      1
  7314  7391  7393      1
  7315  7391  7394      1
  7316  7392  7395      1
  7317  7392  7396      1
  7318  7392  7397      1
  7319  7393  7398      1
  7320  7393  7399      1
  7321  7393  7400      1
  7322  7394  7401      1
  7323  7401  7402      1
  7324  7401  7403      1
  7325  7401  7404      1
  7326  7402  7405      1
  7327  7402  7406      1
  7328  7402  7407      1
  7329  7403  7408      1
  7330  7403  7409      1
  7331  7403  7410      1
  7332     8  1041      1
  7333   963  1204      1
  7334    60  1211      1
  7335   965  1364      1
  7336    72  1371      1
  7337   967  1514      1
  7338   124  1521      1
  7339   969  1664      1
  7340   136  1671      1
  7341   971  1814      1
  7342   158  1821      1
  7343   973  1974      1
  7344   180  1981      1
  7345   975  2124      1
  7346   192  2131      1
  7347   977  2274      1
  7348   234  2281      1
  7349   979  2444      1
  7350   246  2451      1
  7351   981  2584      1
  7352   268  2591      1
  7353   983  2764      1
  7354   280  2771      1
  7355   985  2914      1
  7356   322  2921      1
  7357   987  3064      1
  7358   334  3071      1
  7359   989  3224      1
  7360   366  3231      1
  7361   991  3424      1
  7362   378  3431      1
  7363   993  3594      1
  7364   390  3601      1
  7365   995  3734      1
  7366   402  3741      1
  7367   997  3864      1
  7368   434  3871      1
  7369   999  4064      1
  7370   466  4071      1
  7371  1001  4254      1
  7372   488  4261      1
  7373  1003  4494      1
  7374   500  4501      1
  7375  1005  4644      1
  7376   522  4651      1
  7377  1007  4804      1
  7378   544  4811      1
  7379  1009  4964      1
  7380   576  4971      1
  7381  1011  5114      1
  7382   598  5121      1
  7383  1013  5264      1
  7384   650  5271      1
  7385  1015  5414      1
  7386   672  5421      1
  7387  1017  5564      1
  7388   694  5571      1
  7389  1019  5714      1
  7390   706  5721      1
  7391  1021  5864      1
  7392   738  5871      1
  7393  1023  6034      1
  7394   760  6041      1
  7395  1025  6204      1
  7396   772  6211      1
  7397  1027  6354      1
  7398   804  6361      1
  7399  1029  6504      1
  7400   816  6511      1
  7401  1031  6664      1
  7402   838  6671      1
  7403  1033  6804      1
  7404   870  6811      1
  7405  1035  7004      1
  7406   892  7011      1
  7407  1037  7194      1
  7408   934  7201      1
  7409  1039  7404      1
