###
### Created by PolyChef-cpp17 on Tue Apr 15 15:28:40 2025
###

@<TRIPOS>MOLECULE
NO_INFO
14712 14756 1 0 0
SMALL
USER_CHARGES


@<TRIPOS>ATOM
      1 C          54.7539   70.6256   17.9725 C.2       0      C_A    0.0000
      2 C          55.9159   69.6930   18.2934 C.2       0      C_A    0.0000
      3 O          56.7099   69.3222   17.4647 O.2       0      C_A    0.0000
      4 N          55.9938   69.3206   19.6078 N.3       0      C_A    0.0000
      5 C          57.0349   68.4229   20.1156 C.3       0      C_A    0.0000
      6 N          58.3416   68.8195   19.5850 N.3       0      C_A    0.0000
      7 C          59.5218   68.4977   20.1931 C.2       0      C_A    0.0000
      8 C          60.7583   68.9989   19.4566 C.2       0      C_A    0.0000
      9 C          60.7659   70.5337   19.3253 C.2       0      C_A    0.0000
     10 O          59.5724   67.8759   21.2248 O.2       0      C_A    0.0000
     11 C          53.3904   70.0145   18.3458 C.2       0      C_A    0.0000
     12 H          54.7634   70.7942   16.8663 H         0      C_A    0.0000
     13 H          55.2864   69.6665   20.2559 H         0      C_A    0.0000
     14 H          56.8063   67.3765   19.8096 H         0      C_A    0.0000
     15 H          57.0192   68.4869   21.2274 H         0      C_A    0.0000
     16 H          58.3677   69.3067   18.6883 H         0      C_A    0.0000
     17 H          61.6492   68.6982   20.0631 H         0      C_A    0.0000
     18 H          59.9214   70.8652   18.6755 H         0      C_A    0.0000
     19 H          61.7080   70.8525   18.8175 H         0      C_A    0.0000
     20 H          52.5793   70.7233   18.0513 H         0      C_A    0.0000
     21 H          53.3186   69.8862   19.4518 H         0      C_A    0.0000
     22 C          63.4108   67.4520   27.5823 C.2       1      C_B    0.0000
     23 C          62.8503   68.5080   28.5277 C.2       1      C_B    0.0000
     24 O          61.6689   68.7101   28.6621 O.2       1      C_B    0.0000
     25 N          63.8011   69.2013   29.2262 N.3       1      C_B    0.0000
     26 C          63.4658   70.2624   30.1797 C.3       1      C_B    0.0000
     27 N          62.3642   69.8307   31.0436 N.3       1      C_B    0.0000
     28 C          62.1289   70.3695   32.2767 C.2       1      C_B    0.0000
     29 C          60.9193   69.7807   32.9927 C.2       1      C_B    0.0000
     30 C          61.0709   68.2656   33.2256 C.2       1      C_B    0.0000
     31 O          62.8250   71.2313   32.7524 O.2       1      C_B    0.0000
     32 C          64.3813   68.0480   26.5457 C.2       1      C_B    0.0000
     33 H          62.5433   67.0133   27.0281 H         1      C_B    0.0000
     34 H          64.7837   68.9837   29.0611 H         1      C_B    0.0000
     35 H          63.1707   71.1822   29.6249 H         1      C_B    0.0000
     36 H          64.3810   70.4776   30.7769 H         1      C_B    0.0000
     37 H          61.7103   69.1375   30.6774 H         1      C_B    0.0000
     38 H          60.8505   70.2801   33.9915 H         1      C_B    0.0000
     39 H          61.0837   67.7286   32.2474 H         1      C_B    0.0000
     40 H          60.1815   67.8912   33.7875 H         1      C_B    0.0000
     41 H          64.7256   67.2376   25.8590 H         1      C_B    0.0000
     42 H          65.2909   68.4438   27.0564 H         1      C_B    0.0000
     43 C          82.1193   70.3110   35.2285 C.2       2      C_C    0.0000
     44 C          83.0054   71.5387   35.4034 C.2       2      C_C    0.0000
     45 O          83.8172   71.6433   36.2893 O.2       2      C_C    0.0000
     46 N          82.8141   72.5112   34.4599 N.3       2      C_C    0.0000
     47 C          83.5634   73.7707   34.4585 C.3       2      C_C    0.0000
     48 N          84.9865   73.5079   34.6871 N.3       2      C_C    0.0000
     49 C          85.9745   74.3699   34.3037 C.2       2      C_C    0.0000
     50 C          87.3809   73.9015   34.6577 C.2       2      C_C    0.0000
     51 C          87.7235   72.5564   33.9898 C.2       2      C_C    0.0000
     52 O          85.7462   75.4059   33.7310 O.2       2      C_C    0.0000
     53 C          80.6199   70.6620   35.2455 C.2       2      C_C    0.0000
     54 H          82.3231   69.6325   36.0947 H         2      C_C    0.0000
     55 H          82.1072   72.3610   33.7404 H         2      C_C    0.0000
     56 H          83.1707   74.4387   35.2588 H         2      C_C    0.0000
     57 H          83.4008   74.2560   33.4693 H         2      C_C    0.0000
     58 H          85.2417   72.6694   35.2106 H         2      C_C    0.0000
     59 H          88.0935   74.6725   34.2708 H         2      C_C    0.0000
     60 H          87.0684   71.7502   34.3975 H         2      C_C    0.0000
     61 H          88.7743   72.2784   34.2457 H         2      C_C    0.0000
     62 H          80.0234   69.7223   35.1548 H         2      C_C    0.0000
     63 H          80.3641   71.2911   34.3604 H         2      C_C    0.0000
     64 C          20.6700   55.6057   13.7126 C.2       3      C_D    0.0000
     65 C          20.9140   56.3536   15.0180 C.2       3      C_D    0.0000
     66 O          21.8587   56.1343   15.7351 O.2       3      C_D    0.0000
     67 N          19.9772   57.3091   15.3041 N.3       3      C_D    0.0000
     68 C          20.0302   58.1314   16.5160 C.3       3      C_D    0.0000
     69 N          21.3928   58.6263   16.7272 N.3       3      C_D    0.0000
     70 C          21.6752   59.7399   17.4663 C.2       3      C_D    0.0000
     71 C          23.1618   60.0598   17.5667 C.2       3      C_D    0.0000
     72 C          23.7899   60.3117   16.1830 C.2       3      C_D    0.0000
     73 O          20.8174   60.4090   17.9860 O.2       3      C_D    0.0000
     74 C          19.2970   54.9088   13.6832 C.2       3      C_D    0.0000
     75 H          21.4582   54.8152   13.6344 H         3      C_D    0.0000
     76 H          19.2000   57.4400   14.6569 H         3      C_D    0.0000
     77 H          19.7104   57.5235   17.3930 H         3      C_D    0.0000
     78 H          19.3156   58.9748   16.3799 H         3      C_D    0.0000
     79 H          22.1668   58.0759   16.3526 H         3      C_D    0.0000
     80 H          23.2584   60.9986   18.1677 H         3      C_D    0.0000
     81 H          23.7636   59.3758   15.5759 H         3      C_D    0.0000
     82 H          24.8657   60.5815   16.3134 H         3      C_D    0.0000
     83 H          19.1929   54.3466   12.7240 H         3      C_D    0.0000
     84 H          18.4813   55.6698   13.6992 H         3      C_D    0.0000
     85 C          25.9200   39.6800   30.1695 C.2       4      C_E    0.0000
     86 C          26.1692   38.7167   31.3241 C.2       4      C_E    0.0000
     87 O          25.4694   38.6708   32.3053 O.2       4      C_E    0.0000
     88 N          27.2659   37.9144   31.1624 N.3       4      C_E    0.0000
     89 C          27.6703   36.9170   32.1570 C.3       4      C_E    0.0000
     90 N          27.6155   37.4979   33.5008 N.3       4      C_E    0.0000
     91 C          28.3348   37.0087   34.5541 C.2       4      C_E    0.0000
     92 C          28.1105   37.7576   35.8623 C.2       4      C_E    0.0000
     93 C          28.5023   39.2429   35.7484 C.2       4      C_E    0.0000
     94 O          29.0836   36.0697   34.4489 O.2       4      C_E    0.0000
     95 C          25.7465   38.9511   28.8240 C.2       4      C_E    0.0000
     96 H          24.9661   40.2207   30.3927 H         4      C_E    0.0000
     97 H          27.8121   38.0011   30.3055 H         4      C_E    0.0000
     98 H          26.9901   36.0366   32.0996 H         4      C_E    0.0000
     99 H          28.7052   36.5923   31.9041 H         4      C_E    0.0000
    100 H          26.9630   38.2655   33.6657 H         4      C_E    0.0000
    101 H          28.7691   37.2831   36.6323 H         4      C_E    0.0000
    102 H          27.8248   39.7622   35.0296 H         4      C_E    0.0000
    103 H          28.3592   39.7359   36.7401 H         4      C_E    0.0000
    104 H          25.5272   39.7020   28.0271 H         4      C_E    0.0000
    105 H          26.6993   38.4469   28.5363 H         4      C_E    0.0000
    106 C          16.2686   39.2026   34.8679 C.2       5      C_F    0.0000
    107 C          15.4243   40.4070   34.4683 C.2       5      C_F    0.0000
    108 O          14.4030   40.3129   33.8336 O.2       5      C_F    0.0000
    109 N          15.9141   41.6084   34.9032 N.3       5      C_F    0.0000
    110 C          15.2516   42.8837   34.6163 C.3       5      C_F    0.0000
    111 N          13.8111   42.7656   34.8558 N.3       5      C_F    0.0000
    112 C          13.0086   43.8397   35.1175 C.2       5      C_F    0.0000
    113 C          11.5400   43.4851   35.3176 C.2       5      C_F    0.0000
    114 C          11.3381   42.5201   36.5011 C.2       5      C_F    0.0000
    115 O          13.4333   44.9658   35.1878 O.2       5      C_F    0.0000
    116 C          17.7177   39.3062   34.3569 C.2       5      C_F    0.0000
    117 H          15.8013   38.3023   34.3954 H         5      C_F    0.0000
    118 H          16.7864   41.6175   35.4315 H         5      C_F    0.0000
    119 H          15.4345   43.1681   33.5549 H         5      C_F    0.0000
    120 H          15.7052   43.6537   35.2810 H         5      C_F    0.0000
    121 H          13.3831   41.8435   34.7625 H         5      C_F    0.0000
    122 H          10.9986   44.4364   35.5493 H         5      C_F    0.0000
    123 H          11.8170   41.5372   36.2779 H         5      C_F    0.0000
    124 H          10.2463   42.3248   36.6315 H         5      C_F    0.0000
    125 H          18.2735   38.3812   34.6440 H         5      C_F    0.0000
    126 H          18.2380   40.1599   34.8521 H         5      C_F    0.0000
    127 C          50.4176   17.8997   14.1880 C.2       6      C_G    0.0000
    128 C          50.6099   16.6816   15.0837 C.2       6      C_G    0.0000
    129 O          49.9097   15.7016   15.0207 O.2       6      C_G    0.0000
    130 N          51.6563   16.7852   15.9594 N.3       6      C_G    0.0000
    131 C          52.0011   15.7239   16.9094 C.3       6      C_G    0.0000
    132 N          51.9829   14.4228   16.2362 N.3       6      C_G    0.0000
    133 C          52.6727   13.3366   16.6948 C.2       6      C_G    0.0000
    134 C          52.4952   12.0830   15.8466 C.2       6      C_G    0.0000
    135 C          52.9753   12.2964   14.3986 C.2       6      C_G    0.0000
    136 O          53.3637   13.3756   17.6820 O.2       6      C_G    0.0000
    137 C          50.1992   19.1931   14.9949 C.2       6      C_G    0.0000
    138 H          49.4981   17.7166   13.5770 H         6      C_G    0.0000
    139 H          52.2058   17.6443   15.9641 H         6      C_G    0.0000
    140 H          51.2693   15.7234   17.7492 H         6      C_G    0.0000
    141 H          53.0144   15.9510   17.3120 H         6      C_G    0.0000
    142 H          51.3778   14.3125   15.4214 H         6      C_G    0.0000
    143 H          53.1250   11.2806   16.3063 H         6      C_G    0.0000
    144 H          52.3294   13.0509   13.8898 H         6      C_G    0.0000
    145 H          52.8632   11.3409   13.8316 H         6      C_G    0.0000
    146 H          50.0244   20.0398   14.2881 H         6      C_G    0.0000
    147 H          51.1197   19.4431   15.5737 H         6      C_G    0.0000
    148 C          76.1648   48.3189   43.4974 C.2       7      C_H    0.0000
    149 C          77.1827   47.5161   42.6958 C.2       7      C_H    0.0000
    150 O          78.3471   47.8209   42.6185 O.2       7      C_H    0.0000
    151 N          76.6621   46.4244   42.0558 N.3       7      C_H    0.0000
    152 C          77.4787   45.5211   41.2405 C.3       7      C_H    0.0000
    153 N          78.3602   46.2959   40.3635 N.3       7      C_H    0.0000
    154 C          78.8889   45.7952   39.2076 C.2       7      C_H    0.0000
    155 C          79.7918   46.7710   38.4625 C.2       7      C_H    0.0000
    156 C          79.0395   48.0511   38.0525 C.2       7      C_H    0.0000
    157 O          78.6529   44.6799   38.8153 O.2       7      C_H    0.0000
    158 C          75.4579   47.4674   44.5685 C.2       7      C_H    0.0000
    159 H          76.7268   49.1325   44.0213 H         7      C_H    0.0000
    160 H          75.6691   46.2206   42.1674 H         7      C_H    0.0000
    161 H          78.0889   44.8681   41.9055 H         7      C_H    0.0000
    162 H          76.7835   44.8849   40.6469 H         7      C_H    0.0000
    163 H          78.6363   47.2311   40.6655 H         7      C_H    0.0000
    164 H          80.1360   46.2571   37.5301 H         7      C_H    0.0000
    165 H          78.7319   48.6206   38.9616 H         7      C_H    0.0000
    166 H          79.7304   48.7125   37.4761 H         7      C_H    0.0000
    167 H          74.7573   48.1163   45.1475 H         7      C_H    0.0000
    168 H          74.8367   46.6788   44.0817 H         7      C_H    0.0000
    169 C          74.3508   14.1242   41.5984 C.2       8      C_I    0.0000
    170 C          75.0758   14.2659   42.9316 C.2       8      C_I    0.0000
    171 O          75.4602   15.3250   43.3620 O.2       8      C_I    0.0000
    172 N          75.2428   13.0896   43.6105 N.3       8      C_I    0.0000
    173 C          75.9217   13.0138   44.9071 C.3       8      C_I    0.0000
    174 N          75.4460   14.0854   45.7857 N.3       8      C_I    0.0000
    175 C          75.5278   14.0237   47.1479 C.2       8      C_I    0.0000
    176 C          74.9878   15.2580   47.8603 C.2       8      C_I    0.0000
    177 C          73.4989   15.4972   47.5459 C.2       8      C_I    0.0000
    178 O          75.9837   13.0705   47.7286 O.2       8      C_I    0.0000
    179 C          75.0667   13.1530   40.6413 C.2       8      C_I    0.0000
    180 H          74.3431   15.1354   41.1193 H         8      C_I    0.0000
    181 H          74.8981   12.2283   43.1870 H         8      C_I    0.0000
    182 H          77.0214   13.1097   44.7580 H         8      C_I    0.0000
    183 H          75.7010   12.0128   45.3426 H         8      C_I    0.0000
    184 H          75.0933   14.9400   45.3527 H         8      C_I    0.0000
    185 H          75.0851   15.0745   48.9597 H         8      C_I    0.0000
    186 H          73.3719   15.7421   46.4646 H         8      C_I    0.0000
    187 H          73.1417   16.3848   48.1217 H         8      C_I    0.0000
    188 H          74.5141   13.1219   39.6714 H         8      C_I    0.0000
    189 H          75.0427   12.1182   41.0576 H         8      C_I    0.0000
    190 C          23.8984   17.3411   28.9875 C.2       9      C_J    0.0000
    191 C          24.2079   18.6600   29.6859 C.2       9      C_J    0.0000
    192 O          23.8429   18.9120   30.8075 O.2       9      C_J    0.0000
    193 N          24.9501   19.5334   28.9382 N.3       9      C_J    0.0000
    194 C          25.3454   20.8567   29.4283 C.3       9      C_J    0.0000
    195 N          25.8474   20.7539   30.8008 N.3       9      C_J    0.0000
    196 C          26.6857   21.6770   31.3589 C.2       9      C_J    0.0000
    197 C          27.0669   21.3782   32.8038 C.2       9      C_J    0.0000
    198 C          27.7922   20.0260   32.9387 C.2       9      C_J    0.0000
    199 O          27.0887   22.6383   30.7531 O.2       9      C_J    0.0000
    200 C          23.1468   17.5429   27.6585 C.2       9      C_J    0.0000
    201 H          23.2350   16.7546   29.6717 H         9      C_J    0.0000
    202 H          25.2218   19.2593   27.9943 H         9      C_J    0.0000
    203 H          24.4679   21.5424   29.3989 H         9      C_J    0.0000
    204 H          26.1325   21.2461   28.7432 H         9      C_J    0.0000
    205 H          25.5042   19.9875   31.3812 H         9      C_J    0.0000
    206 H          27.7700   22.1836   33.1338 H         9      C_J    0.0000
    207 H          27.0989   19.1930   32.6729 H         9      C_J    0.0000
    208 H          28.0859   19.8734   34.0053 H         9      C_J    0.0000
    209 H          22.9130   16.5448   27.2157 H         9      C_J    0.0000
    210 H          23.8001   18.0737   26.9263 H         9      C_J    0.0000
    211 C          30.9705   79.4639   32.2814 C.2      10      C_K    0.0000
    212 C          32.2311   79.9402   31.5693 C.2      10      C_K    0.0000
    213 O          33.0058   80.7251   32.0576 O.2      10      C_K    0.0000
    214 N          32.4208   79.3905   30.3306 N.3      10      C_K    0.0000
    215 C          33.5690   79.7253   29.4837 C.3      10      C_K    0.0000
    216 N          34.7996   79.7110   30.2786 N.3      10      C_K    0.0000
    217 C          36.0384   79.5328   29.7312 C.2      10      C_K    0.0000
    218 C          37.1773   79.5708   30.7432 C.2      10      C_K    0.0000
    219 C          37.0345   78.4692   31.8103 C.2      10      C_K    0.0000
    220 O          36.2074   79.3561   28.5506 O.2      10      C_K    0.0000
    221 C          29.6942   79.7456   31.4669 C.2      10      C_K    0.0000
    222 H          30.8990   80.0356   33.2407 H        10      C_K    0.0000
    223 H          31.7239   78.7365   29.9747 H        10      C_K    0.0000
    224 H          33.4210   80.7352   29.0375 H        10      C_K    0.0000
    225 H          33.6132   78.9707   28.6657 H        10      C_K    0.0000
    226 H          34.7272   79.9032   31.2786 H        10      C_K    0.0000
    227 H          38.1265   79.3873   30.1800 H        10      C_K    0.0000
    228 H          36.1259   78.6548   32.4311 H        10      C_K    0.0000
    229 H          37.9112   78.5129   32.5006 H        10      C_K    0.0000
    230 H          28.8047   79.4133   32.0546 H        10      C_K    0.0000
    231 H          29.7001   79.1451   30.5266 H        10      C_K    0.0000
    232 C          78.8072   82.3936   16.7108 C.2      11      C_L    0.0000
    233 C          77.5295   83.0596   17.2077 C.2      11      C_L    0.0000
    234 O          76.4650   82.4938   17.2469 O.2      11      C_L    0.0000
    235 N          77.6924   84.3537   17.6217 N.3      11      C_L    0.0000
    236 C          76.5839   85.1684   18.1269 C.3      11      C_L    0.0000
    237 N          75.7821   84.3914   19.0754 N.3      11      C_L    0.0000
    238 C          74.9924   84.9667   20.0302 C.2      11      C_L    0.0000
    239 C          74.2343   83.9673   20.8958 C.2      11      C_L    0.0000
    240 C          75.1880   83.0286   21.6586 C.2      11      C_L    0.0000
    241 O          74.9117   86.1611   20.1729 O.2      11      C_L    0.0000
    242 C          79.4517   83.1598   15.5406 C.2      11      C_L    0.0000
    243 H          78.5249   81.3758   16.3410 H        11      C_L    0.0000
    244 H          78.6194   84.7739   17.5571 H        11      C_L    0.0000
    245 H          75.9454   85.4976   17.2756 H        11      C_L    0.0000
    246 H          77.0245   86.0659   18.6176 H        11      C_L    0.0000
    247 H          75.7705   83.3755   18.9748 H        11      C_L    0.0000
    248 H          73.6518   84.5562   21.6479 H        11      C_L    0.0000
    249 H          75.7444   82.3827   20.9386 H        11      C_L    0.0000
    250 H          74.5878   82.3459   22.3072 H        11      C_L    0.0000
    251 H          80.3567   82.6046   15.1945 H        11      C_L    0.0000
    252 H          79.8020   84.1612   15.8857 H        11      C_L    0.0000
    253 C          85.3164   14.2291   42.9694 C.2      12      C_M    0.0000
    254 C          85.7290   14.8209   41.6268 C.2      12      C_M    0.0000
    255 O          86.7132   15.5030   41.4831 O.2      12      C_M    0.0000
    256 N          84.8954   14.5013   40.5896 N.3      12      C_M    0.0000
    257 C          85.1157   14.9783   39.2216 C.3      12      C_M    0.0000
    258 N          86.5250   14.8177   38.8551 N.3      12      C_M    0.0000
    259 C          86.9539   14.7361   37.5607 C.2      12      C_M    0.0000
    260 C          88.4636   14.5884   37.4134 C.2      12      C_M    0.0000
    261 C          88.9860   13.3140   38.1032 C.2      12      C_M    0.0000
    262 O          86.1977   14.7731   36.6225 O.2      12      C_M    0.0000
    263 C          83.8974   14.6565   43.3881 C.2      12      C_M    0.0000
    264 H          86.0328   14.6201   43.7350 H        12      C_M    0.0000
    265 H          84.0769   13.9239   40.7812 H        12      C_M    0.0000
    266 H          84.8285   16.0523   39.1508 H        12      C_M    0.0000
    267 H          84.4577   14.3823   38.5491 H        12      C_M    0.0000
    268 H          87.2196   14.8280   39.6032 H        12      C_M    0.0000
    269 H          88.6827   14.5055   36.3194 H        12      C_M    0.0000
    270 H          88.8363   13.3886   39.2065 H        12      C_M    0.0000
    271 H          90.0863   13.2304   37.9319 H        12      C_M    0.0000
    272 H          83.6680   14.2275   44.3932 H        12      C_M    0.0000
    273 H          83.1459   14.2341   42.6798 H        12      C_M    0.0000
    274 C          79.2621   44.0515   13.3227 C.2      13      C_N    0.0000
    275 C          79.8350   44.0666   14.7350 C.2      13      C_N    0.0000
    276 O          80.5536   43.1974   15.1627 O.2      13      C_N    0.0000
    277 N          79.4537   45.1446   15.4867 N.3      13      C_N    0.0000
    278 C          79.9033   45.3456   16.8670 C.3      13      C_N    0.0000
    279 N          79.7920   44.0928   17.6182 N.3      13      C_N    0.0000
    280 C          79.6943   44.0465   18.9800 C.2      13      C_N    0.0000
    281 C          79.6059   42.6359   19.5500 C.2      13      C_N    0.0000
    282 C          78.3730   41.8789   19.0211 C.2      13      C_N    0.0000
    283 O          79.6750   45.0393   19.6638 O.2      13      C_N    0.0000
    284 C          79.6408   45.3114   12.5221 C.2      13      C_N    0.0000
    285 H          79.7027   43.1663   12.7987 H        13      C_N    0.0000
    286 H          78.8479   45.8464   15.0618 H        13      C_N    0.0000
    287 H          80.9621   45.6918   16.8672 H        13      C_N    0.0000
    288 H          79.2628   46.1386   17.3157 H        13      C_N    0.0000
    289 H          79.8510   43.2154   17.0997 H        13      C_N    0.0000
    290 H          79.5034   42.7334   20.6599 H        13      C_N    0.0000
    291 H          78.4704   41.7119   17.9221 H        13      C_N    0.0000
    292 H          78.3309   40.8701   19.4982 H        13      C_N    0.0000
    293 H          79.2292   45.2247   11.4877 H        13      C_N    0.0000
    294 H          79.1689   46.2124   12.9808 H        13      C_N    0.0000
    295 C          23.1035   82.2639   35.2573 C.2      14      C_O    0.0000
    296 C          22.5889   80.8365   35.4010 C.2      14      C_O    0.0000
    297 O          21.5048   80.4852   35.0060 O.2      14      C_O    0.0000
    298 N          23.4554   79.9854   36.0312 N.3      14      C_O    0.0000
    299 C          23.1491   78.5706   36.2599 C.3      14      C_O    0.0000
    300 N          21.7825   78.4292   36.7685 N.3      14      C_O    0.0000
    301 C          21.3627   77.3451   37.4859 C.2      14      C_O    0.0000
    302 C          19.8968   77.4017   37.8987 C.2      14      C_O    0.0000
    303 C          19.5963   78.6253   38.7847 C.2      14      C_O    0.0000
    304 O          22.0952   76.4301   37.7685 O.2      14      C_O    0.0000
    305 C          24.4363   82.3328   34.4887 C.2      14      C_O    0.0000
    306 H          22.3386   82.8316   34.6700 H        14      C_O    0.0000
    307 H          24.3592   80.3464   36.3361 H        14      C_O    0.0000
    308 H          23.2553   78.0073   35.3047 H        14      C_O    0.0000
    309 H          23.8908   78.1818   36.9942 H        14      C_O    0.0000
    310 H          21.1015   79.1485   36.5213 H        14      C_O    0.0000
    311 H          19.6857   76.4800   38.4968 H        14      C_O    0.0000
    312 H          19.7403   79.5646   38.1997 H        14      C_O    0.0000
    313 H          18.5234   78.5987   39.0932 H        14      C_O    0.0000
    314 H          24.7409   83.4016   34.3802 H        14      C_O    0.0000
    315 H          25.2414   81.8274   35.0728 H        14      C_O    0.0000
    316 C          45.9468   75.0290   23.5354 C.2      15      C_P    0.0000
    317 C          44.7815   74.5715   22.6660 C.2      15      C_P    0.0000
    318 O          44.5419   73.4102   22.4449 O.2      15      C_P    0.0000
    319 N          44.0168   75.5903   22.1663 N.3      15      C_P    0.0000
    320 C          42.8556   75.3580   21.3029 C.3      15      C_P    0.0000
    321 N          42.0310   74.2782   21.8510 N.3      15      C_P    0.0000
    322 C          40.7046   74.1317   21.5589 C.2      15      C_P    0.0000
    323 C          40.0495   72.9287   22.2268 C.2      15      C_P    0.0000
    324 C          40.1279   73.0112   23.7630 C.2      15      C_P    0.0000
    325 O          40.1100   74.8946   20.8391 O.2      15      C_P    0.0000
    326 C          46.9005   75.9783   22.7866 C.2      15      C_P    0.0000
    327 H          46.5252   74.1136   23.8181 H        15      C_P    0.0000
    328 H          44.2780   76.5508   22.3880 H        15      C_P    0.0000
    329 H          43.2009   75.0854   20.2795 H        15      C_P    0.0000
    330 H          42.2818   76.3111   21.2497 H        15      C_P    0.0000
    331 H          42.4878   73.5717   22.4292 H        15      C_P    0.0000
    332 H          38.9697   72.9348   21.9337 H        15      C_P    0.0000
    333 H          41.1915   72.9482   24.0947 H        15      C_P    0.0000
    334 H          39.5998   72.1314   24.2038 H        15      C_P    0.0000
    335 H          47.7518   76.2457   23.4580 H        15      C_P    0.0000
    336 H          46.3756   76.9312   22.5391 H        15      C_P    0.0000
    337 C          55.5051   83.8840   41.3597 C.2      16      C_Q    0.0000
    338 C          54.8188   84.6934   40.2657 C.2      16      C_Q    0.0000
    339 O          54.6043   85.8766   40.3592 O.2      16      C_Q    0.0000
    340 N          54.4775   83.9675   39.1571 N.3      16      C_Q    0.0000
    341 C          53.8032   84.5611   37.9992 C.3      16      C_Q    0.0000
    342 N          54.4432   85.8296   37.6420 N.3      16      C_Q    0.0000
    343 C          54.3615   86.3804   36.3945 C.2      16      C_Q    0.0000
    344 C          55.0891   87.7120   36.2533 C.2      16      C_Q    0.0000
    345 C          56.5950   87.5778   36.5481 C.2      16      C_Q    0.0000
    346 O          53.7683   85.8506   35.4884 O.2      16      C_Q    0.0000
    347 C          54.6426   82.7043   41.8457 C.3      16      C_Q    0.0000
    348 H          55.6649   84.5728   42.2270 H        16      C_Q    0.0000
    349 H          54.6832   82.9687   39.1451 H        16      C_Q    0.0000
    350 H          52.7303   84.7362   38.2423 H        16      C_Q    0.0000
    351 H          53.8702   83.8302   37.1615 H        16      C_Q    0.0000
    352 H          54.9202   86.3508   38.3790 H        16      C_Q    0.0000
    353 H          54.9716   88.0420   35.1907 H        16      C_Q    0.0000
    354 H          56.7513   87.3060   37.6191 H        16      C_Q    0.0000
    355 H          57.0879   88.5675   36.3913 H        16      C_Q    0.0000
    356 H          55.1778   82.1759   42.6711 H        16      C_Q    0.0000
    357 H          54.5101   81.9627   41.0227 H        16      C_Q    0.0000
    358 H          53.6638   83.0189   42.2079 H        16      C_Q    0.0000
    359 C          50.5660   51.3189   21.0635 C.2      17      C_R    0.0000
    360 C          51.8618   51.4080   20.2660 C.2      17      C_R    0.0000
    361 O          52.3366   50.4697   19.6753 O.2      17      C_R    0.0000
    362 N          52.4377   52.6493   20.2628 N.3      17      C_R    0.0000
    363 C          53.6908   52.9384   19.5599 C.3      17      C_R    0.0000
    364 N          53.6608   52.3500   18.2186 N.3      17      C_R    0.0000
    365 C          54.4366   52.8018   17.1889 C.2      17      C_R    0.0000
    366 C          54.2544   52.0303   15.8874 C.2      17      C_R    0.0000
    367 C          52.8036   52.1031   15.3748 C.2      17      C_R    0.0000
    368 O          55.1928   53.7335   17.3060 O.2      17      C_R    0.0000
    369 C          50.7536   51.7288   22.5361 C.2      17      C_R    0.0000
    370 H          50.2408   50.2483   21.0437 H        17      C_R    0.0000
    371 H          51.9864   53.3983   20.7875 H        17      C_R    0.0000
    372 H          54.5466   52.5184   20.1361 H        17      C_R    0.0000
    373 H          53.7978   54.0458   19.5079 H        17      C_R    0.0000
    374 H          53.0757   51.5269   18.0685 H        17      C_R    0.0000
    375 H          54.9167   52.5093   15.1234 H        17      C_R    0.0000
    376 H          52.1208   51.5812   16.0866 H        17      C_R    0.0000
    377 H          52.7319   51.5596   14.4019 H        17      C_R    0.0000
    378 H          49.7843   51.6046   23.0764 H        17      C_R    0.0000
    379 H          51.0211   52.8100   22.6012 H        17      C_R    0.0000
    380 C          83.1081   16.6720    8.0487 C.2      18      C_S    0.0000
    381 C          84.6184   16.7632    7.8653 C.2      18      C_S    0.0000
    382 O          85.3720   15.8686    8.1593 O.2      18      C_S    0.0000
    383 N          85.0504   17.9432    7.3235 N.3      18      C_S    0.0000
    384 C          86.4662   18.2284    7.0749 C.3      18      C_S    0.0000
    385 N          87.1069   17.0730    6.4416 N.3      18      C_S    0.0000
    386 C          88.2462   17.1695    5.6940 C.2      18      C_S    0.0000
    387 C          88.7455   15.8381    5.1459 C.2      18      C_S    0.0000
    388 C          87.7048   15.1679    4.2290 C.2      18      C_S    0.0000
    389 O          88.7994   18.2204    5.4862 O.2      18      C_S    0.0000
    390 C          82.5554   17.8013    8.9380 C.2      18      C_S    0.0000
    391 H          82.8971   15.6986    8.5589 H        18      C_S    0.0000
    392 H          84.3601   18.6606    7.1024 H        18      C_S    0.0000
    393 H          86.9746   18.4591    8.0389 H        18      C_S    0.0000
    394 H          86.5166   19.1243    6.4153 H        18      C_S    0.0000
    395 H          86.7132   16.1482    6.6202 H        18      C_S    0.0000
    396 H          89.6583   16.0530    4.5357 H        18      C_S    0.0000
    397 H          86.8011   14.8858    4.8198 H        18      C_S    0.0000
    398 H          88.1328   14.2202    3.8218 H        18      C_S    0.0000
    399 H          81.4556   17.6587    9.0687 H        18      C_S    0.0000
    400 H          82.6936   18.7873    8.4344 H        18      C_S    0.0000
    401 C          61.1628   19.8264    8.0288 C.2      19      C_T    0.0000
    402 C          62.1293   20.6356    8.8856 C.2      19      C_T    0.0000
    403 O          61.8866   20.9624   10.0209 O.2      19      C_T    0.0000
    404 N          63.3068   20.9500    8.2635 N.3      19      C_T    0.0000
    405 C          64.3632   21.7286    8.9158 C.3      19      C_T    0.0000
    406 N          64.5832   21.2335   10.2770 N.3      19      C_T    0.0000
    407 C          65.7517   21.4225   10.9591 C.2      19      C_T    0.0000
    408 C          65.7526   20.8375   12.3663 C.2      19      C_T    0.0000
    409 C          65.5220   19.3145   12.3553 C.2      19      C_T    0.0000
    410 O          66.6970   21.9981   10.4808 O.2      19      C_T    0.0000
    411 C          60.7974   20.5460    6.7171 C.2      19      C_T    0.0000
    412 H          60.2236   19.6990    8.6238 H        19      C_T    0.0000
    413 H          63.4460   20.6468    7.2998 H        19      C_T    0.0000
    414 H          64.0682   22.8023    8.9490 H        19      C_T    0.0000
    415 H          65.2849   21.6250    8.2993 H        19      C_T    0.0000
    416 H          63.8034   20.7797   10.7546 H        19      C_T    0.0000
    417 H          66.7633   21.0322   12.8049 H        19      C_T    0.0000
    418 H          64.4971   19.0865   11.9772 H        19      C_T    0.0000
    419 H          65.5726   18.9295   13.4023 H        19      C_T    0.0000
    420 H          60.0588   19.9263    6.1538 H        19      C_T    0.0000
    421 H          61.6998   20.6391    6.0676 H        19      C_T    0.0000
    422 C          41.7295   24.1953    3.9503 C.2      20      C_U    0.0000
    423 C          41.3230   25.2582    4.9642 C.2      20      C_U    0.0000
    424 O          41.7406   26.3893    4.9347 O.2      20      C_U    0.0000
    425 N          40.4527   24.8183    5.9242 N.3      20      C_U    0.0000
    426 C          39.9375   25.6892    6.9842 C.3      20      C_U    0.0000
    427 N          41.0297   26.4771    7.5611 N.3      20      C_U    0.0000
    428 C          40.9776   27.0174    8.8147 C.2      20      C_U    0.0000
    429 C          42.2187   27.8125    9.2018 C.2      20      C_U    0.0000
    430 C          43.4889   26.9414    9.1796 C.2      20      C_U    0.0000
    431 O          40.0312   26.8694    9.5468 O.2      20      C_U    0.0000
    432 C          40.5184   23.5929    3.2139 C.2      20      C_U    0.0000
    433 H          42.3788   24.6976    3.1898 H        20      C_U    0.0000
    434 H          40.1347   23.8500    5.8880 H        20      C_U    0.0000
    435 H          39.1635   26.3708    6.5632 H        20      C_U    0.0000
    436 H          39.4658   25.0369    7.7539 H        20      C_U    0.0000
    437 H          41.8392   26.6784    6.9725 H        20      C_U    0.0000
    438 H          42.0655   28.1760   10.2488 H        20      C_U    0.0000
    439 H          43.7054   26.6089    8.1366 H        20      C_U    0.0000
    440 H          44.3603   27.5571    9.5093 H        20      C_U    0.0000
    441 H          40.8802   22.8537    2.4591 H        20      C_U    0.0000
    442 H          39.8753   23.0304    3.9314 H        20      C_U    0.0000
    443 C          18.2856   73.3900   21.7135 C.2      21      C_V    0.0000
    444 C          17.7040   72.9119   20.3883 C.2      21      C_V    0.0000
    445 O          16.5396   73.0341   20.0986 O.2      21      C_V    0.0000
    446 N          18.6182   72.3432   19.5437 N.3      21      C_V    0.0000
    447 C          18.2562   71.8150   18.2254 C.3      21      C_V    0.0000
    448 N          17.3875   72.7649   17.5258 N.3      21      C_V    0.0000
    449 C          17.2539   72.7910   16.1665 C.2      21      C_V    0.0000
    450 C          16.2842   73.8504   15.6567 C.2      21      C_V    0.0000
    451 C          16.7240   75.2715   16.0563 C.2      21      C_V    0.0000
    452 O          17.8577   72.0417   15.4401 O.2      21      C_V    0.0000
    453 C          18.9726   72.2555   22.4963 C.3      21      C_V    0.0000
    454 H          17.4312   73.7651   22.3312 H        21      C_V    0.0000
    455 H          19.5869   72.2663   19.8530 H        21      C_V    0.0000
    456 H          17.7288   70.8413   18.3463 H        21      C_V    0.0000
    457 H          19.2014   71.6475   17.6607 H        21      C_V    0.0000
    458 H          16.8128   73.3938   18.0882 H        21      C_V    0.0000
    459 H          16.2839   73.7884   14.5396 H        21      C_V    0.0000
    460 H          16.6792   75.3871   17.1653 H        21      C_V    0.0000
    461 H          16.0064   76.0109   15.6256 H        21      C_V    0.0000
    462 H          19.3413   72.6555   23.4715 H        21      C_V    0.0000
    463 H          19.8686   71.8939   21.9385 H        21      C_V    0.0000
    464 H          18.3067   71.4149   22.6917 H        21      C_V    0.0000
    465 C          23.4671   56.7383   43.1784 C.2      22      C_W    0.0000
    466 C          22.0363   57.1449   42.8463 C.2      22      C_W    0.0000
    467 O          21.1924   56.3567   42.4981 O.2      22      C_W    0.0000
    468 N          21.7821   58.4817   42.9903 N.3      22      C_W    0.0000
    469 C          20.4697   59.0721   42.7129 C.3      22      C_W    0.0000
    470 N          19.4139   58.2508   43.3106 N.3      22      C_W    0.0000
    471 C          18.1760   58.7384   43.6205 C.2      22      C_W    0.0000
    472 C          17.2307   57.7026   44.2174 C.2      22      C_W    0.0000
    473 C          17.7817   57.1100   45.5281 C.2      22      C_W    0.0000
    474 O          17.8675   59.8898   43.4396 O.2      22      C_W    0.0000
    475 C          24.5042   57.4858   42.3196 C.2      22      C_W    0.0000
    476 H          23.5589   55.6458   42.9541 H        22      C_W    0.0000
    477 H          22.5427   59.0945   43.2836 H        22      C_W    0.0000
    478 H          20.3166   59.1389   41.6116 H        22      C_W    0.0000
    479 H          20.4674   60.0998   43.1420 H        22      C_W    0.0000
    480 H          19.5976   57.2555   43.4438 H        22      C_W    0.0000
    481 H          16.2702   58.2268   44.4504 H        22      C_W    0.0000
    482 H          18.7117   56.5285   45.3226 H        22      C_W    0.0000
    483 H          17.0369   56.3902   45.9454 H        22      C_W    0.0000
    484 H          25.5263   57.1181   42.5784 H        22      C_W    0.0000
    485 H          24.4850   58.5754   42.5589 H        22      C_W    0.0000
    486 C          64.4405   35.2668   44.0381 C.2      23      C_X    0.0000
    487 C          63.9570   36.3707   43.1050 C.2      23      C_X    0.0000
    488 O          63.6709   36.1770   41.9495 O.2      23      C_X    0.0000
    489 N          63.8878   37.6086   43.6842 N.3      23      C_X    0.0000
    490 C          63.4397   38.7989   42.9563 C.3      23      C_X    0.0000
    491 N          64.0776   38.8507   41.6385 N.3      23      C_X    0.0000
    492 C          64.2291   40.0081   40.9287 C.2      23      C_X    0.0000
    493 C          64.9049   39.8241   39.5752 C.2      23      C_X    0.0000
    494 C          66.3220   39.2368   39.7158 C.2      23      C_X    0.0000
    495 O          63.8625   41.0782   41.3457 O.2      23      C_X    0.0000
    496 C          63.5543   35.1261   45.2897 C.2      23      C_X    0.0000
    497 H          64.3840   34.3059   43.4674 H        23      C_X    0.0000
    498 H          64.1397   37.7020   44.6681 H        23      C_X    0.0000
    499 H          62.3325   38.7681   42.8375 H        23      C_X    0.0000
    500 H          63.7138   39.6884   43.5679 H        23      C_X    0.0000
    501 H          64.3661   37.9701   41.2100 H        23      C_X    0.0000
    502 H          64.9940   40.8375   39.1095 H        23      C_X    0.0000
    503 H          66.2664   38.1998   40.1242 H        23      C_X    0.0000
    504 H          66.7882   39.1605   38.7040 H        23      C_X    0.0000
    505 H          63.9321   34.2792   45.9118 H        23      C_X    0.0000
    506 H          63.6308   36.0448   45.9180 H        23      C_X    0.0000
    507 C          37.2150   42.3593    7.2891 C.2      24      C_Y    0.0000
    508 C          36.5214   42.9111    6.0492 C.2      24      C_Y    0.0000
    509 O          35.4085   42.5849    5.7179 O.2      24      C_Y    0.0000
    510 N          37.2624   43.8224    5.3471 N.3      24      C_Y    0.0000
    511 C          36.7756   44.4626    4.1220 C.3      24      C_Y    0.0000
    512 N          35.3936   44.9125    4.3062 N.3      24      C_Y    0.0000
    513 C          34.8279   45.9071    3.5599 C.2      24      C_Y    0.0000
    514 C          33.3741   46.1989    3.9118 C.2      24      C_Y    0.0000
    515 C          33.2158   46.6417    5.3786 C.2      24      C_Y    0.0000
    516 O          35.4338   46.5009    2.7033 O.2      24      C_Y    0.0000
    517 C          38.5587   41.6834    6.9583 C.2      24      C_Y    0.0000
    518 H          36.5382   41.5825    7.7261 H        24      C_Y    0.0000
    519 H          38.1993   44.0499    5.6797 H        24      C_Y    0.0000
    520 H          36.8260   43.7377    3.2776 H        24      C_Y    0.0000
    521 H          37.4495   45.3217    3.9026 H        24      C_Y    0.0000
    522 H          34.8135   44.4160    4.9838 H        24      C_Y    0.0000
    523 H          33.0379   47.0413    3.2568 H        24      C_Y    0.0000
    524 H          33.4875   45.8024    6.0620 H        24      C_Y    0.0000
    525 H          32.1430   46.8825    5.5741 H        24      C_Y    0.0000
    526 H          38.9979   41.2648    7.8958 H        24      C_Y    0.0000
    527 H          39.2832   42.4400    6.5744 H        24      C_Y    0.0000
    528 C          29.0858   72.1658   21.5636 C.2      25      C_Z    0.0000
    529 C          29.9105   72.9767   20.5709 C.2      25      C_Z    0.0000
    530 O          29.4694   73.3785   19.5228 O.2      25      C_Z    0.0000
    531 N          31.2029   73.2000   20.9612 N.3      25      C_Z    0.0000
    532 C          32.1537   73.9645   20.1493 C.3      25      C_Z    0.0000
    533 N          32.0748   73.5381   18.7499 N.3      25      C_Z    0.0000
    534 C          33.0961   73.7111   17.8593 C.2      25      C_Z    0.0000
    535 C          32.7885   73.2077   16.4542 C.2      25      C_Z    0.0000
    536 C          32.4783   71.6990   16.4396 C.2      25      C_Z    0.0000
    537 O          34.1478   74.2140   18.1670 O.2      25      C_Z    0.0000
    538 C          29.0256   72.8257   22.9538 C.2      25      C_Z    0.0000
    539 H          28.0427   72.1163   21.1614 H        25      C_Z    0.0000
    540 H          31.5104   72.8362   21.8629 H        25      C_Z    0.0000
    541 H          31.9195   75.0509   20.2255 H        25      C_Z    0.0000
    542 H          33.1709   73.7832   20.5653 H        25      C_Z    0.0000
    543 H          31.1921   73.1490   18.4158 H        25      C_Z    0.0000
    544 H          33.7033   73.3799   15.8334 H        25      C_Z    0.0000
    545 H          31.5359   71.4978   17.0023 H        25      C_Z    0.0000
    546 H          32.3013   71.3723   15.3865 H        25      C_Z    0.0000
    547 H          28.3774   72.2100   23.6229 H        25      C_Z    0.0000
    548 H          30.0414   72.8396   23.4151 H        25      C_Z    0.0000
    549 C          65.8766   87.0014   37.8596 C.2      26     C_AA    0.0000
    550 C          66.6714   88.0909   37.1494 C.2      26     C_AA    0.0000
    551 O          67.7951   87.9267   36.7433 O.2      26     C_AA    0.0000
    552 N          66.0080   89.2811   37.0226 N.3      26     C_AA    0.0000
    553 C          66.5981   90.4496   36.3637 C.3      26     C_AA    0.0000
    554 N          67.9759   90.6418   36.8230 N.3      26     C_AA    0.0000
    555 C          68.6211   91.8444   36.7615 C.2      26     C_AA    0.0000
    556 C          70.0542   91.8089   37.2787 C.2      26     C_AA    0.0000
    557 C          70.1212   91.3790   38.7563 C.2      26     C_AA    0.0000
    558 O          68.0943   92.8431   36.3387 O.2      26     C_AA    0.0000
    559 C          64.5409   86.6963   37.1565 C.2      26     C_AA    0.0000
    560 H          66.4984   86.0714   37.8342 H        26     C_AA    0.0000
    561 H          65.0570   89.3508   37.3840 H        26     C_AA    0.0000
    562 H          66.5868   90.3001   35.2599 H        26     C_AA    0.0000
    563 H          65.9662   91.3312   36.6164 H        26     C_AA    0.0000
    564 H          68.4924   89.8231   37.1473 H        26     C_AA    0.0000
    565 H          70.4597   92.8489   37.2012 H        26     C_AA    0.0000
    566 H          69.7781   90.3224   38.8621 H        26     C_AA    0.0000
    567 H          71.1839   91.4088   39.0979 H        26     C_AA    0.0000
    568 H          64.0248   85.8661   37.6964 H        26     C_AA    0.0000
    569 H          63.8671   87.5837   37.2133 H        26     C_AA    0.0000
    570 C          64.3845   61.7942   18.5287 C.2      27     C_AB    0.0000
    571 C          64.7845   61.0925   19.8213 C.2      27     C_AB    0.0000
    572 O          65.9304   60.9769   20.1795 O.2      27     C_AB    0.0000
    573 N          63.7334   60.5889   20.5382 N.3      27     C_AB    0.0000
    574 C          63.9088   59.8861   21.8121 C.3      27     C_AB    0.0000
    575 N          65.0057   58.9208   21.7055 N.3      27     C_AB    0.0000
    576 C          65.1226   57.8322   22.5224 C.2      27     C_AB    0.0000
    577 C          66.3505   56.9737   22.2435 C.2      27     C_AB    0.0000
    578 C          66.3465   56.4148   20.8081 C.2      27     C_AB    0.0000
    579 O          64.3178   57.5767   23.3830 O.2      27     C_AB    0.0000
    580 C          63.4091   62.9610   18.7719 C.2      27     C_AB    0.0000
    581 H          65.3193   62.2157   18.0806 H        27     C_AB    0.0000
    582 H          62.7882   60.7262   20.1806 H        27     C_AB    0.0000
    583 H          64.1332   60.6233   22.6165 H        27     C_AB    0.0000
    584 H          62.9480   59.3744   22.0474 H        27     C_AB    0.0000
    585 H          65.7456   59.1080   21.0274 H        27     C_AB    0.0000
    586 H          66.3175   56.1089   22.9526 H        27     C_AB    0.0000
    587 H          66.4380   57.2497   20.0733 H        27     C_AB    0.0000
    588 H          67.2415   55.7619   20.6674 H        27     C_AB    0.0000
    589 H          63.1855   63.4595   17.7980 H        27     C_AB    0.0000
    590 H          62.4392   62.5735   19.1642 H        27     C_AB    0.0000
    591 C          68.6014   51.0107   30.3796 C.2      28     C_AC    0.0000
    592 C          67.7060   50.3228   29.3558 C.2      28     C_AC    0.0000
    593 O          67.0360   50.9278   28.5560 O.2      28     C_AC    0.0000
    594 N          67.7130   48.9564   29.4283 N.3      28     C_AC    0.0000
    595 C          66.9245   48.1121   28.5266 C.3      28     C_AC    0.0000
    596 N          65.5644   48.6426   28.4041 N.3      28     C_AC    0.0000
    597 C          64.4968   47.8773   28.0287 C.2      28     C_AC    0.0000
    598 C          63.1803   48.6410   27.9510 C.2      28     C_AC    0.0000
    599 C          62.7915   49.2551   29.3091 C.2      28     C_AC    0.0000
    600 O          64.5947   46.7002   27.7869 O.2      28     C_AC    0.0000
    601 C          70.0712   50.5644   30.2678 C.2      28     C_AC    0.0000
    602 H          68.5589   52.1088   30.1683 H        28     C_AC    0.0000
    603 H          68.3067   48.5075   30.1254 H        28     C_AC    0.0000
    604 H          67.4090   48.0836   27.5239 H        28     C_AC    0.0000
    605 H          66.9150   47.0835   28.9537 H        28     C_AC    0.0000
    606 H          65.4247   49.6435   28.5490 H        28     C_AC    0.0000
    607 H          62.3878   47.9056   27.6632 H        28     C_AC    0.0000
    608 H          63.5318   50.0379   29.5998 H        28     C_AC    0.0000
    609 H          61.8037   49.7664   29.2098 H        28     C_AC    0.0000
    610 H          70.6824   51.1297   31.0120 H        28     C_AC    0.0000
    611 H          70.1640   49.4841   30.5306 H        28     C_AC    0.0000
    612 C          43.3377   30.7814   25.7713 C.2      29     C_AD    0.0000
    613 C          43.4308   30.8699   24.2526 C.2      29     C_AD    0.0000
    614 O          44.0534   30.0820   23.5846 O.2      29     C_AD    0.0000
    615 N          42.7346   31.9129   23.7048 N.3      29     C_AD    0.0000
    616 C          42.7044   32.1737   22.2631 C.3      29     C_AD    0.0000
    617 N          42.4761   30.9248   21.5321 N.3      29     C_AD    0.0000
    618 C          41.9575   30.8846   20.2689 C.2      29     C_AD    0.0000
    619 C          41.8225   29.4789   19.6960 C.2      29     C_AD    0.0000
    620 C          40.8946   28.5963   20.5522 C.2      29     C_AD    0.0000
    621 O          41.6324   31.8783   19.6685 O.2      29     C_AD    0.0000
    622 C          43.8334   32.0636   26.4655 C.2      29     C_AD    0.0000
    623 H          44.0003   29.9387   26.0927 H        29     C_AD    0.0000
    624 H          42.2329   32.5457   24.3277 H        29     C_AD    0.0000
    625 H          43.6725   32.6240   21.9456 H        29     C_AD    0.0000
    626 H          41.8853   32.9038   22.0719 H        29     C_AD    0.0000
    627 H          42.7758   30.0518   21.9682 H        29     C_AD    0.0000
    628 H          41.3658   29.5784   18.6795 H        29     C_AD    0.0000
    629 H          41.3493   28.4273   21.5571 H        29     C_AD    0.0000
    630 H          40.7961   27.5939   20.0699 H        29     C_AD    0.0000
    631 H          43.7798   31.9243   27.5722 H        29     C_AD    0.0000
    632 H          43.1605   32.9180   26.2167 H        29     C_AD    0.0000
    633 C          71.4498   27.5566   17.4347 C.2      30     C_AE    0.0000
    634 C          71.6081   28.8717   17.2127 C.2      30     C_AE    0.0000
    635 C          70.4526   29.5475   17.4248 C.2      30     C_AE    0.0000
    636 N          69.5995   28.5262   17.7893 N.2      30     C_AE    0.0000
    637 C          70.1783   27.2752   17.8087 C.2      30     C_AE    0.0000
    638 O          69.6334   26.2374   18.0950 O.2      30     C_AE    0.0000
    639 O          70.1859   30.7211   17.3346 O.2      30     C_AE    0.0000
    640 H          72.2554   26.8177   17.3238 H        30     C_AE    0.0000
    641 H          72.5583   29.3264   16.9000 H        30     C_AE    0.0000
    642 C          86.0004   23.6516   31.0496 C.2      31     C_AF    0.0000
    643 C          86.1451   22.3527   30.7404 C.2      31     C_AF    0.0000
    644 C          87.2741   22.1426   30.0208 C.2      31     C_AF    0.0000
    645 N          87.7841   23.4214   29.9294 N.2      31     C_AF    0.0000
    646 C          87.0249   24.3873   30.5547 C.2      31     C_AF    0.0000
    647 O          87.2691   25.5677   30.6085 O.2      31     C_AF    0.0000
    648 O          87.7513   21.1343   29.5600 O.2      31     C_AF    0.0000
    649 H          85.1565   24.0506   31.6291 H        31     C_AF    0.0000
    650 H          85.4316   21.5724   31.0397 H        31     C_AF    0.0000
    651 C          27.3681   34.1530   17.8019 C.2      32     C_AG    0.0000
    652 C          26.3339   33.4544   18.2978 C.2      32     C_AG    0.0000
    653 C          25.4563   33.1176   17.3216 C.2      32     C_AG    0.0000
    654 N          26.0555   33.6727   16.2096 N.2      32     C_AG    0.0000
    655 C          27.2431   34.3247   16.4638 C.2      32     C_AG    0.0000
    656 O          27.9417   34.8839   15.6543 O.2      32     C_AG    0.0000
    657 O          24.4190   32.5017   17.3579 O.2      32     C_AG    0.0000
    658 H          28.1994   34.5297   18.4137 H        32     C_AG    0.0000
    659 H          26.2267   33.1969   19.3607 H        32     C_AG    0.0000
    660 C          51.9307   36.4241   28.8645 C.2      33     C_AH    0.0000
    661 C          50.6497   36.8092   28.9856 C.2      33     C_AH    0.0000
    662 C          50.5563   38.1465   29.1845 C.2      33     C_AH    0.0000
    663 N          51.8845   38.5201   29.1706 N.2      33     C_AH    0.0000
    664 C          52.7700   37.4818   28.9753 C.2      33     C_AH    0.0000
    665 O          53.9728   37.5648   28.9265 O.2      33     C_AH    0.0000
    666 O          49.5997   38.8661   29.3379 O.2      33     C_AH    0.0000
    667 H          52.2419   35.3836   28.6978 H        33     C_AH    0.0000
    668 H          49.7979   36.1174   28.9287 H        33     C_AH    0.0000
    669 C          88.4693   38.7597    7.5587 C.2      34     C_AI    0.0000
    670 C          87.5280   38.0765    8.2303 C.2      34     C_AI    0.0000
    671 C          88.0073   37.6109    9.4094 C.2      34     C_AI    0.0000
    672 N          89.3066   38.0743    9.3804 N.2      34     C_AI    0.0000
    673 C          89.6344   38.7912    8.2496 C.2      34     C_AI    0.0000
    674 O          90.7045   39.2912    8.0027 O.2      34     C_AI    0.0000
    675 O          87.4851   36.9633   10.2837 O.2      34     C_AI    0.0000
    676 H          88.3018   39.2262    6.5781 H        34     C_AI    0.0000
    677 H          86.5054   37.9231    7.8586 H        34     C_AI    0.0000
    678 C          36.3167   49.9614   35.2902 C.2      35     C_AJ    0.0000
    679 C          35.5376   50.8191   35.9692 C.2      35     C_AJ    0.0000
    680 C          35.4614   52.0166   35.3392 C.2      35     C_AJ    0.0000
    681 N          36.2574   51.7971   34.2338 N.2      35     C_AJ    0.0000
    682 C          36.8079   50.5351   34.1654 C.2      35     C_AJ    0.0000
    683 O          37.5332   50.1153   33.2972 O.2      35     C_AJ    0.0000
    684 O          34.8733   53.0318   35.6222 O.2      35     C_AJ    0.0000
    685 H          36.5202   48.9322   35.6168 H        35     C_AJ    0.0000
    686 H          35.0336   50.5679   36.9128 H        35     C_AJ    0.0000
    687 C          46.1646   71.6673   42.1829 C.2      36     C_AK    0.0000
    688 C          46.7139   70.5567   42.7011 C.2      36     C_AK    0.0000
    689 C          46.4418   70.4463   44.0242 C.2      36     C_AK    0.0000
    690 N          45.6883   71.5807   44.2456 N.2      36     C_AK    0.0000
    691 C          45.4922   72.3655   43.1294 C.2      36     C_AK    0.0000
    692 O          44.8701   73.3982   43.0793 O.2      36     C_AK    0.0000
    693 O          46.7488   69.6070   44.8353 O.2      36     C_AK    0.0000
    694 H          46.2567   71.9582   41.1274 H        36     C_AK    0.0000
    695 H          47.3051   69.8393   42.1152 H        36     C_AK    0.0000
    696 C          13.9542   27.6909   16.2186 C.2      37     C_AL    0.0000
    697 C          12.6112   27.6837   16.2303 C.2      37     C_AL    0.0000
    698 C          12.1319   27.6477   17.4975 C.2      37     C_AL    0.0000
    699 N          13.2993   27.6338   18.2328 N.2      37     C_AL    0.0000
    700 C          14.4525   27.6603   17.4781 C.2      37     C_AL    0.0000
    701 O          15.5841   27.6554   17.8972 O.2      37     C_AL    0.0000
    702 O          11.0030   27.6309   17.9240 O.2      37     C_AL    0.0000
    703 H          14.5562   27.7185   15.2999 H        37     C_AL    0.0000
    704 H          11.9942   27.7047   15.3213 H        37     C_AL    0.0000
    705 C          77.8336   59.1446   29.6723 C.2      38     C_AM    0.0000
    706 C          78.8926   58.3717   29.3810 C.2      38     C_AM    0.0000
    707 C          79.3519   57.7328   30.4844 C.2      38     C_AM    0.0000
    708 N          78.4789   58.1898   31.4502 N.2      38     C_AM    0.0000
    709 C          77.5219   59.0680   30.9885 C.2      38     C_AM    0.0000
    710 O          76.6573   59.5960   31.6441 O.2      38     C_AM    0.0000
    711 O          80.2691   56.9635   30.6380 O.2      38     C_AM    0.0000
    712 H          77.3001   59.7539   28.9297 H        38     C_AM    0.0000
    713 H          79.3205   58.2798   28.3731 H        38     C_AM    0.0000
    714 C          75.7475   79.4996   41.6258 C.2      39     C_AN    0.0000
    715 C          76.2228   78.7793   40.5967 C.2      39     C_AN    0.0000
    716 C          75.6352   79.1428   39.4308 C.2      39     C_AN    0.0000
    717 N          74.7748   80.1349   39.8540 N.2      39     C_AN    0.0000
    718 C          74.8135   80.3879   41.2085 C.2      39     C_AN    0.0000
    719 O          74.1561   81.2058   41.8042 O.2      39     C_AN    0.0000
    720 O          75.7851   78.7423   38.3022 O.2      39     C_AN    0.0000
    721 H          76.0822   79.3739   42.6647 H        39     C_AN    0.0000
    722 H          76.9895   77.9992   40.7021 H        39     C_AN    0.0000
    723 C          53.0736   78.8992   27.0687 C.2      40     C_AO    0.0000
    724 C          51.8486   78.3868   27.2700 C.2      40     C_AO    0.0000
    725 C          51.5089   78.4285   28.5813 C.2      40     C_AO    0.0000
    726 N          52.6315   79.0059   29.1380 N.2      40     C_AO    0.0000
    727 C          53.6258   79.3140   28.2343 C.2      40     C_AO    0.0000
    728 O          54.6909   79.8222   28.4856 O.2      40     C_AO    0.0000
    729 O          50.5112   78.0721   29.1595 O.2      40     C_AO    0.0000
    730 H          53.5522   78.9667   26.0819 H        40     C_AO    0.0000
    731 H          51.2151   77.9891   26.4650 H        40     C_AO    0.0000
    732 C          62.7757   43.4106   17.1564 C.2      41     C_AP    0.0000
    733 C          62.9815   42.2667   17.8294 C.2      41     C_AP    0.0000
    734 C          63.5115   41.3131   17.0253 C.2      41     C_AP    0.0000
    735 N          63.6027   41.9858   15.8241 N.2      41     C_AP    0.0000
    736 C          63.1563   43.2894   15.8618 C.2      41     C_AP    0.0000
    737 O          63.1378   44.0680   14.9400 O.2      41     C_AP    0.0000
    738 O          63.8349   40.1715   17.2463 O.2      41     C_AP    0.0000
    739 H          62.3530   44.3178   17.6099 H        41     C_AP    0.0000
    740 H          62.7452   42.1358   18.8945 H        41     C_AP    0.0000
    741 C          85.5674   36.3918   43.9301 C.2      42     C_AQ    0.0000
    742 C          84.2919   36.5955   43.5626 C.2      42     C_AQ    0.0000
    743 C          84.0441   36.0695   42.3384 C.2      42     C_AQ    0.0000
    744 N          85.2754   35.5386   42.0129 N.2      42     C_AQ    0.0000
    745 C          86.2485   35.7171   42.9728 C.2      42     C_AQ    0.0000
    746 O          87.3938   35.3424   42.9110 O.2      42     C_AQ    0.0000
    747 O          83.0405   36.0435   41.6687 O.2      42     C_AQ    0.0000
    748 H          85.9893   36.7337   44.8854 H        42     C_AQ    0.0000
    749 H          83.5556   37.1228   44.1850 H        42     C_AQ    0.0000
    750 C          15.2525   90.1500   18.1381 C.2      43     C_AR    0.0000
    751 C          14.4128   89.3014   18.7534 C.2      43     C_AR    0.0000
    752 C          14.6903   89.2102   20.0768 C.2      43     C_AR    0.0000
    753 N          15.7612   90.0723   20.1934 N.2      43     C_AR    0.0000
    754 C          16.1416   90.6767   19.0143 C.2      43     C_AR    0.0000
    755 O          17.0449   91.4638   18.8709 O.2      43     C_AR    0.0000
    756 O          14.1747   88.5669   20.9583 O.2      43     C_AR    0.0000
    757 H          15.2114   90.3776   17.0640 H        43     C_AR    0.0000
    758 H          13.6091   88.7585   18.2369 H        43     C_AR    0.0000
    759 C          58.4142   23.2752   28.0323 C.2      44     C_AS    0.0000
    760 C          57.0804   23.1498   27.9368 C.2      44     C_AS    0.0000
    761 C          56.6638   23.3029   26.6563 C.2      44     C_AS    0.0000
    762 N          57.8582   23.5291   26.0036 N.2      44     C_AS    0.0000
    763 C          58.9686   23.5197   26.8205 C.2      44     C_AS    0.0000
    764 O          60.1125   23.6922   26.4775 O.2      44     C_AS    0.0000
    765 O          55.5623   23.2625   26.1647 O.2      44     C_AS    0.0000
    766 H          58.9692   23.1882   28.9766 H        44     C_AS    0.0000
    767 H          56.4247   22.9488   28.7953 H        44     C_AS    0.0000
    768 C          66.5184   62.6642   43.2709 C.2      45     C_AT    0.0000
    769 C          67.2599   63.1627   44.2736 C.2      45     C_AT    0.0000
    770 C          66.5088   63.3715   45.3822 C.2      45     C_AT    0.0000
    771 N          65.2646   62.9568   44.9536 N.2      45     C_AT    0.0000
    772 C          65.2269   62.5100   43.6500 C.2      45     C_AT    0.0000
    773 O          64.2572   62.1001   43.0603 O.2      45     C_AT    0.0000
    774 O          66.7969   63.8005   46.4729 O.2      45     C_AT    0.0000
    775 H          66.9206   62.4182   42.2784 H        45     C_AT    0.0000
    776 H          68.3359   63.3693   44.1908 H        45     C_AT    0.0000
    777 C          33.7741   10.5195   36.5697 C.2      46     C_AU    0.0000
    778 C          32.8546   11.2258   35.8920 C.2      46     C_AU    0.0000
    779 C          33.2150   12.5281   35.7880 C.2      46     C_AU    0.0000
    780 N          34.4206   12.5342   36.4591 N.2      46     C_AU    0.0000
    781 C          34.8045   11.3083   36.9593 C.2      46     C_AU    0.0000
    782 O          35.8133   11.0699   37.5769 O.2      46     C_AU    0.0000
    783 O          32.6694   13.4682   35.2636 O.2      46     C_AU    0.0000
    784 H          33.6884    9.4432   36.7736 H        46     C_AU    0.0000
    785 H          31.9336   10.7898   35.4805 H        46     C_AU    0.0000
    786 C          21.4632   10.2595    8.2414 C.2      47     C_AV    0.0000
    787 C          21.5773   11.3922    8.9539 C.2      47     C_AV    0.0000
    788 C          20.5651   12.2499    8.6770 C.2      47     C_AV    0.0000
    789 N          19.8442   11.5327    7.7445 N.2      47     C_AV    0.0000
    790 C          20.3673   10.2929    7.4454 C.2      47     C_AV    0.0000
    791 O          19.9138    9.4927    6.6644 O.2      47     C_AV    0.0000
    792 O          20.3137   13.3517    9.1005 O.2      47     C_AV    0.0000
    793 H          22.1737    9.4238    8.3059 H        47     C_AV    0.0000
    794 H          22.3920   11.5844    9.6657 H        47     C_AV    0.0000
    795 C          88.3896   66.5002   11.5887 C.2      48     C_AW    0.0000
    796 C          87.1173   66.3428   11.9891 C.2      48     C_AW    0.0000
    797 C          86.2664   67.0548   11.2108 C.2      48     C_AW    0.0000
    798 N          87.1381   67.6447   10.3186 N.2      48     C_AW    0.0000
    799 C          88.4646   67.3273   10.5183 C.2      48     C_AW    0.0000
    800 O          89.4018   67.7211    9.8682 O.2      48     C_AW    0.0000
    801 O          85.0661   67.1762   11.2436 O.2      48     C_AW    0.0000
    802 H          89.2469   66.0153   12.0756 H        48     C_AW    0.0000
    803 H          86.8201   65.7144   12.8402 H        48     C_AW    0.0000
    804 C          33.7112   13.3706   18.2513 C.2      49     C_AX    0.0000
    805 C          32.9707   12.6943   19.1445 C.2      49     C_AX    0.0000
    806 C          33.7246   12.2750   20.1898 C.2      49     C_AX    0.0000
    807 N          34.9696   12.7575   19.8419 N.2      49     C_AX    0.0000
    808 C          35.0051   13.4436   18.6468 C.2      49     C_AX    0.0000
    809 O          35.9749   13.9533   18.1411 O.2      49     C_AX    0.0000
    810 O          33.4381   11.6481   21.1804 O.2      49     C_AX    0.0000
    811 H          33.3068   13.8027   17.3256 H        49     C_AX    0.0000
    812 H          31.8931   12.5125   19.0291 H        49     C_AX    0.0000
    813 C          35.9738   41.9652   25.0992 C.2      50     C_AY    0.0000
    814 C          36.3074   41.6376   23.8402 C.2      50     C_AY    0.0000
    815 C          35.3866   42.0906   22.9550 C.2      50     C_AY    0.0000
    816 N          34.4830   42.7123   23.7921 N.2      50     C_AY    0.0000
    817 C          34.8094   42.6571   25.1303 C.2      50     C_AY    0.0000
    818 O          34.1749   43.1265   26.0431 O.2      50     C_AY    0.0000
    819 O          35.3237   42.0031   21.7529 O.2      50     C_AY    0.0000
    820 H          36.5763   41.6997   25.9788 H        50     C_AY    0.0000
    821 H          37.2135   41.0743   23.5772 H        50     C_AY    0.0000
    822 C          20.6165   90.8370    5.0682 C.2      51     C_AZ    0.0000
    823 C          21.3256   89.9047    4.4111 C.2      51     C_AZ    0.0000
    824 C          21.4434   88.7710    5.1442 C.2      51     C_AZ    0.0000
    825 N          20.7467   89.1083    6.2863 N.2      51     C_AZ    0.0000
    826 C          20.2180   90.3814    6.2803 C.2      51     C_AZ    0.0000
    827 O          19.5748   90.8949    7.1627 O.2      51     C_AZ    0.0000
    828 O          21.9951   87.7231    4.9112 O.2      51     C_AZ    0.0000
    829 H          20.3966   91.8344    4.6630 H        51     C_AZ    0.0000
    830 H          21.7495   90.0565    3.4087 H        51     C_AZ    0.0000
    831 C          54.5218   16.4976   39.6870 C.2      52     C_BA    0.0000
    832 C          54.8909   15.4573   40.4521 C.2      52     C_BA    0.0000
    833 C          54.9295   14.3090   39.7334 C.2      52     C_BA    0.0000
    834 N          54.5541   14.7546   38.4827 N.2      52     C_BA    0.0000
    835 C          54.2916   16.1060   38.4105 C.2      52     C_BA    0.0000
    836 O          53.9487   16.7184   37.4290 O.2      52     C_BA    0.0000
    837 O          55.2087   13.1782   40.0493 O.2      52     C_BA    0.0000
    838 H          54.4235   17.5259   40.0613 H        52     C_BA    0.0000
    839 H          55.1277   15.5420   41.5218 H        52     C_BA    0.0000
    840 C          79.3583   36.5659   28.9457 C.2      53     C_BB    0.0000
    841 C          78.8453   36.5553   27.7046 C.2      53     C_BB    0.0000
    842 C          79.5194   37.4012   26.8880 C.2      53     C_BB    0.0000
    843 N          80.4716   37.9115   27.7462 N.2      53     C_BB    0.0000
    844 C          80.4064   37.4200   29.0324 C.2      53     C_BB    0.0000
    845 O          81.1296   37.7178   29.9513 O.2      53     C_BB    0.0000
    846 O          79.3708   37.6728   25.7214 O.2      53     C_BB    0.0000
    847 H          78.9683   35.9563   29.7724 H        53     C_BB    0.0000
    848 H          77.9889   35.9354   27.4049 H        53     C_BB    0.0000
    849 C          78.0659   69.7039   22.6873 C.2      54     C_BC    0.0000
    850 C          79.2295   70.1438   23.1934 C.2      54     C_BC    0.0000
    851 C          79.9030   69.1452   23.8146 C.2      54     C_BC    0.0000
    852 N          79.0436   68.0808   23.6352 N.2      54     C_BC    0.0000
    853 C          77.8924   68.3843   22.9404 C.2      54     C_BC    0.0000
    854 O          76.9998   67.6210   22.6634 O.2      54     C_BC    0.0000
    855 O          80.9665   69.1336   24.3852 O.2      54     C_BC    0.0000
    856 H          77.3575   70.3425   22.1416 H        54     C_BC    0.0000
    857 H          79.5773   71.1826   23.1068 H        54     C_BC    0.0000
    858 C          61.4636   48.9013   43.9336 C.2      55     C_BD    0.0000
    859 C          60.3838   48.1938   43.5632 C.2      55     C_BD    0.0000
    860 C          59.2846   48.9826   43.4825 C.2      55     C_BD    0.0000
    861 N          59.8020   50.2123   43.8343 N.2      55     C_BD    0.0000
    862 C          61.1500   50.2058   44.1225 C.2      55     C_BD    0.0000
    863 O          61.8174   51.1555   44.4524 O.2      55     C_BD    0.0000
    864 O          58.1414   48.7314   43.1883 O.2      55     C_BD    0.0000
    865 H          62.4639   48.4654   44.0627 H        55     C_BD    0.0000
    866 H          60.4043   47.1149   43.3560 H        55     C_BD    0.0000
    867 C          52.8240   60.7640   37.7014 C.2      56     C_BE    0.0000
    868 C          53.0866   60.4048   38.9685 C.2      56     C_BE    0.0000
    869 C          54.4174   60.4405   39.2227 C.2      56     C_BE    0.0000
    870 N          54.9193   60.8490   38.0041 N.2      56     C_BE    0.0000
    871 C          53.9643   61.0614   37.0329 C.2      56     C_BE    0.0000
    872 O          54.1631   61.4200   35.8981 O.2      56     C_BE    0.0000
    873 O          55.0463   60.1928   40.2225 O.2      56     C_BE    0.0000
    874 H          51.8115   60.8068   37.2766 H        56     C_BE    0.0000
    875 H          52.3117   60.1213   39.6942 H        56     C_BE    0.0000
    876 C          89.9877   84.4691   33.7812 C.2      57     C_BF    0.0000
    877 C          90.3839   85.0556   34.9226 C.2      57     C_BF    0.0000
    878 C          89.5495   86.0652   35.2707 C.2      57     C_BF    0.0000
    879 N          88.6293   86.0281   34.2432 N.2      57     C_BF    0.0000
    880 C          88.8641   85.0523   33.2983 C.2      57     C_BF    0.0000
    881 O          88.1986   84.8297   32.3167 O.2      57     C_BF    0.0000
    882 O          89.5604   86.8221   36.2107 O.2      57     C_BF    0.0000
    883 H          90.5157   83.6272   33.3125 H        57     C_BF    0.0000
    884 H          91.2724   84.7455   35.4900 H        57     C_BF    0.0000
    885 C          18.1530   66.2691   32.5832 C.2      58     C_BG    0.0000
    886 C          19.2793   65.8609   31.9761 C.2      58     C_BG    0.0000
    887 C          20.2846   66.7516   32.1572 C.2      58     C_BG    0.0000
    888 N          19.6619   67.7179   32.9202 N.2      58     C_BG    0.0000
    889 C          18.3388   67.4576   33.2066 C.2      58     C_BG    0.0000
    890 O          17.5946   68.1536   33.8529 O.2      58     C_BG    0.0000
    891 O          21.4304   66.7505   31.7780 O.2      58     C_BG    0.0000
    892 H          17.2116   65.7027   32.5675 H        58     C_BG    0.0000
    893 H          19.3599   64.9232   31.4090 H        58     C_BG    0.0000
    894 C          67.3439   80.1695   10.0927 C.2      59     C_BH    0.0000
    895 C          67.5877   79.6175    8.8929 C.2      59     C_BH    0.0000
    896 C          67.5563   80.5489    7.9089 C.2      59     C_BH    0.0000
    897 N          67.2749   81.6949    8.6239 N.2      59     C_BH    0.0000
    898 C          67.1349   81.5035    9.9818 C.2      59     C_BH    0.0000
    899 O          66.8889   82.3518   10.8040 O.2      59     C_BH    0.0000
    900 O          67.7219   80.4572    6.7170 O.2      59     C_BH    0.0000
    901 H          67.3201   79.6008   11.0325 H        59     C_BH    0.0000
    902 H          67.7853   78.5468    8.7439 H        59     C_BH    0.0000
    903 C          28.6798   82.1068   30.4662 C.2      60      M_A    0.0000
    904 C          29.4777   81.1580   31.3719 C.3      60      M_A    0.0000
    905 C          29.4135   79.7136   30.8316 C.2      60      M_A    0.0000
    906 N          30.1524   78.7795   31.5251 N.3      60      M_A    0.0000
    907 O          28.7452   79.3507   29.8671 O.2      60      M_A    0.0000
    908 H          27.5989   82.0145   30.6252 H        60      M_A    0.0000
    909 H          28.8511   81.8522   29.4116 H        60      M_A    0.0000
    910 H          29.0494   81.1393   32.3831 H        60      M_A    0.0000
    911 H          30.9804   79.0979   32.0221 H        60      M_A    0.0000
    912 H          30.2107   77.8611   31.1002 H        60      M_A    0.0000
    913 C          31.0064   81.6106   31.5164 C.3      61      M_A    0.0000
    914 C          31.1699   83.1220   31.7314 C.3      61      M_A    0.0000
    915 C          30.5736   83.9047   30.5421 C.2      61      M_A    0.0000
    916 N          30.5992   85.2781   30.6537 N.3      61      M_A    0.0000
    917 O          30.1150   83.3963   29.5224 O.2      61      M_A    0.0000
    918 H          31.4809   81.0283   32.3152 H        61      M_A    0.0000
    919 H          31.5056   81.3071   30.5864 H        61      M_A    0.0000
    920 H          32.2335   83.3904   31.7883 H        61      M_A    0.0000
    921 H          30.5806   85.6825   31.5866 H        61      M_A    0.0000
    922 H          30.0978   85.7873   29.9349 H        61      M_A    0.0000
    923 C          30.4871   83.6116   33.0939 C.3      62      M_A    0.0000
    924 C          29.3646   84.6354   32.8719 C.3      62      M_A    0.0000
    925 C          29.7780   85.6669   31.8006 C.2      62      M_A    0.0000
    926 N          28.8208   86.5996   31.4640 N.3      62      M_A    0.0000
    927 O          30.8816   85.7226   31.2644 O.2      62      M_A    0.0000
    928 H          30.1403   82.7375   33.6578 H        62      M_A    0.0000
    929 H          31.2895   84.0585   33.6961 H        62      M_A    0.0000
    930 H          29.1666   85.1966   33.7950 H        62      M_A    0.0000
    931 H          27.8431   86.3396   31.5661 H        62      M_A    0.0000
    932 H          29.0457   87.1958   30.6758 H        62      M_A    0.0000
    933 C          27.9905   83.9354   32.4424 C.3      63      M_A    0.0000
    934 C          27.1982   84.7469   31.4075 C.3      63      M_A    0.0000
    935 C          28.0107   84.9006   30.1042 C.2      63      M_A    0.0000
    936 N          27.3724   85.5540   29.0721 N.3      63      M_A    0.0000
    937 O          29.1644   84.5117   29.9426 O.2      63      M_A    0.0000
    938 H          28.1982   82.9167   32.0941 H        63      M_A    0.0000
    939 H          27.4020   83.8240   33.3630 H        63      M_A    0.0000
    940 H          27.0009   85.7607   31.7815 H        63      M_A    0.0000
    941 H          26.3572   85.5106   29.0339 H        63      M_A    0.0000
    942 H          27.8548   85.5452   28.1807 H        63      M_A    0.0000
    943 C          25.7794   84.0810   31.0814 C.3      64      M_A    0.0000
    944 C          25.2569   84.4309   29.6807 C.3      64      M_A    0.0000
    945 C          25.2049   85.9618   29.4901 C.2      64      M_A    0.0000
    946 N          24.8159   86.3987   28.2422 N.3      64      M_A    0.0000
    947 O          25.4562   86.7897   30.3618 O.2      64      M_A    0.0000
    948 H          25.8455   82.9975   31.2364 H        64      M_A    0.0000
    949 H          25.0833   84.4520   31.8456 H        64      M_A    0.0000
    950 H          24.2323   84.0583   29.5473 H        64      M_A    0.0000
    951 H          25.0007   85.7950   27.4451 H        64      M_A    0.0000
    952 H          24.9017   87.3953   28.0786 H        64      M_A    0.0000
    953 C          26.1506   83.7752   28.5258 C.3      65      M_A    0.0000
    954 C          25.3367   82.9142   27.5492 C.3      65      M_A    0.0000
    955 C          24.8054   83.7749   26.3834 C.2      65      M_A    0.0000
    956 N          24.1155   83.0965   25.4019 N.3      65      M_A    0.0000
    957 O          24.9329   84.9930   26.2911 O.2      65      M_A    0.0000
    958 H          26.7092   84.5651   28.0097 H        65      M_A    0.0000
    959 H          26.9035   83.1576   29.0336 H        65      M_A    0.0000
    960 H          24.4605   82.4839   28.0528 H        65      M_A    0.0000
    961 H          24.3443   82.1181   25.2458 H        65      M_A    0.0000
    962 H          23.8762   83.6372   24.5787 H        65      M_A    0.0000
    963 C          26.1934   81.6927   26.9690 C.3      66      M_A    0.0000
    964 C          25.6059   80.3202   27.3276 C.3      66      M_A    0.0000
    965 C          24.2784   80.0873   26.5753 C.2      66      M_A    0.0000
    966 N          23.6894   78.8556   26.7638 N.3      66      M_A    0.0000
    967 O          23.7181   80.9148   25.8612 O.2      66      M_A    0.0000
    968 H          26.3130   81.8182   25.8863 H        66      M_A    0.0000
    969 H          27.2002   81.7936   27.3962 H        66      M_A    0.0000
    970 H          25.3776   80.2670   28.4006 H        66      M_A    0.0000
    971 H          24.2914   78.0665   26.9850 H        66      M_A    0.0000
    972 H          22.8882   78.6565   26.1757 H        66      M_A    0.0000
    973 C          26.6242   79.1284   27.0032 C.3      67      M_A    0.0000
    974 C          26.3690   77.8710   27.8466 C.3      67      M_A    0.0000
    975 C          24.9193   77.3769   27.6554 C.2      67      M_A    0.0000
    976 N          24.5912   76.2099   28.3111 N.3      67      M_A    0.0000
    977 O          24.0587   77.9545   26.9964 O.2      67      M_A    0.0000
    978 H          26.5979   78.9143   25.9281 H        67      M_A    0.0000
    979 H          27.6299   79.5199   27.2071 H        67      M_A    0.0000
    980 H          26.4919   78.0923   28.9154 H        67      M_A    0.0000
    981 H          25.3340   75.5408   28.4970 H        67      M_A    0.0000
    982 H          23.6829   75.8199   28.0869 H        67      M_A    0.0000
    983 C          27.3907   76.6915   27.4895 C.3      68      M_A    0.0000
    984 C          27.4385   75.5908   28.5589 C.3      68      M_A    0.0000
    985 C          26.0340   75.3536   29.1534 C.2      68      M_A    0.0000
    986 N          25.9373   74.3363   30.0782 N.3      68      M_A    0.0000
    987 O          25.0329   76.0113   28.8815 O.2      68      M_A    0.0000
    988 H          27.1469   76.2911   26.4983 H        68      M_A    0.0000
    989 H          28.3785   77.1610   27.3892 H        68      M_A    0.0000
    990 H          28.0904   75.8897   29.3909 H        68      M_A    0.0000
    991 H          26.5955   73.5642   30.0103 H        68      M_A    0.0000
    992 H          24.9974   74.0987   30.3741 H        68      M_A    0.0000
    993 C          28.0162   74.2153   27.9787 C.3      69      M_A    0.0000
    994 C          27.8606   73.0379   28.9518 C.3      69      M_A    0.0000
    995 C          28.2940   72.0986   28.3289 C.2      69      M_A    0.0000
    996 N          28.2242   71.1394   28.8161 N.3      69      M_A    0.0000
    997 O          28.6675   72.1481   27.4450 O.2      69      M_A    0.0000
    998 H          27.5507   74.0098   27.0074 H        69      M_A    0.0000
    999 H          29.0799   74.3926   27.7705 H        69      M_A    0.0000
   1000 H          27.0200   72.8979   29.0611 H        69      M_A    0.0000
   1001 H          28.2271   71.1227   29.6114 H        69      M_A    0.0000
   1002 H          28.5950   70.5406   28.4518 H        69      M_A    0.0000
   1003 C          28.3809   73.0635   30.0905 C.3      70      M_A    0.0000
   1004 C          27.6481   72.6613   30.9530 C.3      70      M_A    0.0000
   1005 C          27.2315   71.5625   30.6754 C.2      70      M_A    0.0000
   1006 N          26.6061   71.0955   31.4191 N.3      70      M_A    0.0000
   1007 O          27.4009   71.1008   29.8500 O.2      70      M_A    0.0000
   1008 H          29.1222   72.6325   30.0718 H        70      M_A    0.0000
   1009 H          28.5895   73.8833   30.2408 H        70      M_A    0.0000
   1010 H          26.9638   73.1749   31.0311 H        70      M_A    0.0000
   1011 H          26.7170   71.2964   32.1808 H        70      M_A    0.0000
   1012 H          26.4137   70.3388   31.2809 H        70      M_A    0.0000
   1013 C          28.2126   72.6273   32.0703 C.3      71      M_A    0.0000
   1014 C          27.6852   73.3328   32.8868 C.3      71      M_A    0.0000
   1015 C          28.3292   73.3521   33.9080 C.2      71      M_A    0.0000
   1016 N          27.9609   74.0044   34.6834 N.3      71      M_A    0.0000
   1017 O          29.1140   72.8237   34.0752 O.2      71      M_A    0.0000
   1018 H          28.2652   71.8131   32.3351 H        71      M_A    0.0000
   1019 H          29.0217   72.8843   31.9385 H        71      M_A    0.0000
   1020 H          26.9067   73.0305   33.0888 H        71      M_A    0.0000
   1021 H          27.5438   74.6459   34.4658 H        71      M_A    0.0000
   1022 H          28.4343   74.0916   35.3134 H        71      M_A    0.0000
   1023 C          27.5287   74.5018   32.4660 C.3      72      M_A    0.0000
   1024 C          28.1881   75.3098   33.0618 C.3      72      M_A    0.0000
   1025 C          29.3537   74.9947   33.0514 C.2      72      M_A    0.0000
   1026 N          30.0327   75.6908   33.5171 N.3      72      M_A    0.0000
   1027 O          29.7010   74.1781   32.6831 O.2      72      M_A    0.0000
   1028 H          27.6823   74.5208   31.6223 H        72      M_A    0.0000
   1029 H          26.6931   74.6799   32.5568 H        72      M_A    0.0000
   1030 H          27.9473   75.3471   33.8857 H        72      M_A    0.0000
   1031 H          29.8302   76.4599   33.5286 H        72      M_A    0.0000
   1032 H          30.8042   75.5329   33.4248 H        72      M_A    0.0000
   1033 C          28.0595   76.4618   32.5879 C.3      73      M_A    0.0000
   1034 C          27.4505   77.2035   33.3101 C.3      73      M_A    0.0000
   1035 C          28.0317   77.3440   34.3591 C.2      73      M_A    0.0000
   1036 N          27.5863   78.0380   35.0537 N.3      73      M_A    0.0000
   1037 O          28.8308   76.8755   34.6139 O.2      73      M_A    0.0000
   1038 H          28.8335   76.7723   32.3873 H        73      M_A    0.0000
   1039 H          27.6427   76.3696   31.8423 H        73      M_A    0.0000
   1040 H          26.6776   76.8770   33.4952 H        73      M_A    0.0000
   1041 H          27.1511   78.6350   34.7587 H        73      M_A    0.0000
   1042 H          28.0170   78.2038   35.6984 H        73      M_A    0.0000
   1043 C          27.2605   78.3226   32.7812 C.3      74      M_A    0.0000
   1044 C          26.1496   78.7443   32.9558 C.3      74      M_A    0.0000
   1045 C          26.0987   79.3934   33.9727 C.2      74      M_A    0.0000
   1046 N          25.1502   79.8597   34.1854 N.3      74      M_A    0.0000
   1047 O          26.8226   79.5007   34.5953 O.2      74      M_A    0.0000
   1048 H          27.8596   78.8707   33.0578 H        74      M_A    0.0000
   1049 H          27.4069   78.2189   31.9410 H        74      M_A    0.0000
   1050 H          25.5918   78.0969   33.0452 H        74      M_A    0.0000
   1051 H          24.6793   80.0466   33.5722 H        74      M_A    0.0000
   1052 H          25.1440   80.3632   34.7979 H        74      M_A    0.0000
   1053 C          25.7549   79.4402   31.9924 C.3      75      M_A    0.0000
   1054 C          24.6597   79.9031   32.1623 C.3      75      M_A    0.0000
   1055 C          23.8237   79.0323   32.1349 C.2      75      M_A    0.0000
   1056 N          22.8115   79.3464   32.3329 N.3      75      M_A    0.0000
   1057 O          23.9958   78.1086   31.9340 O.2      75      M_A    0.0000
   1058 H          26.3378   80.0468   31.8251 H        75      M_A    0.0000
   1059 H          25.7518   78.9218   31.3072 H        75      M_A    0.0000
   1060 H          24.4650   80.4555   31.5338 H        75      M_A    0.0000
   1061 H          22.7016   79.9869   32.7917 H        75      M_A    0.0000
   1062 H          22.2796   78.7637   32.4115 H        75      M_A    0.0000
   1063 C          24.5780   80.5308   33.2428 C.3      76      M_A    0.0000
   1064 C          24.3497   81.7004   33.0927 C.2      76      M_A    0.0000
   1065 C          23.1595   81.9033   33.1010 C.2      76      M_A    0.0000
   1066 N          22.8584   82.9359   33.0268 N.3      76      M_A    0.0000
   1067 O          22.4841   81.2215   33.1480 O.2      76      M_A    0.0000
   1068 H          23.9959   80.1517   33.7460 H        76      M_A    0.0000
   1069 H          25.3336   80.4272   33.6384 H        76      M_A    0.0000
   1070 H          24.6432   81.9696   32.3314 H        76      M_A    0.0000
   1071 H          23.3570   83.4915   33.3014 H        76      M_A    0.0000
   1072 H          22.0851   83.0771   33.1303 H        76      M_A    0.0000
   1073 C          38.6472   75.1797   23.7590 C.2      77      M_A    0.0000
   1074 C          39.7883   74.2565   24.2096 C.3      77      M_A    0.0000
   1075 C          41.1509   74.8181   23.7511 C.2      77      M_A    0.0000
   1076 N          42.2604   74.1090   24.1582 N.3      77      M_A    0.0000
   1077 O          41.3026   75.8124   23.0462 O.2      77      M_A    0.0000
   1078 H          37.8093   75.1726   24.4663 H        77      M_A    0.0000
   1079 H          38.2360   74.8296   22.8027 H        77      M_A    0.0000
   1080 H          39.6833   73.2629   23.7533 H        77      M_A    0.0000
   1081 H          42.1969   73.5762   25.0220 H        77      M_A    0.0000
   1082 H          43.1555   74.5435   23.9649 H        77      M_A    0.0000
   1083 C          39.7994   74.0471   25.7966 C.3      78      M_A    0.0000
   1084 C          38.5688   73.2881   26.3133 C.3      78      M_A    0.0000
   1085 C          37.7995   72.6439   25.1404 C.2      78      M_A    0.0000
   1086 N          36.7098   71.8747   25.4874 N.3      78      M_A    0.0000
   1087 O          38.0739   72.7901   23.9522 O.2      78      M_A    0.0000
   1088 H          40.7363   73.5583   26.0893 H        78      M_A    0.0000
   1089 H          39.8340   75.0519   26.2386 H        78      M_A    0.0000
   1090 H          37.8726   73.9762   26.8113 H        78      M_A    0.0000
   1091 H          36.7131   71.4244   26.3991 H        78      M_A    0.0000
   1092 H          36.2814   71.3525   24.7317 H        78      M_A    0.0000
   1093 C          38.9628   72.1623   27.3809 C.3      79      M_A    0.0000
   1094 C          38.3028   70.8053   27.0976 C.3      79      M_A    0.0000
   1095 C          36.7659   70.9458   27.0763 C.2      79      M_A    0.0000
   1096 N          36.0627   69.8030   26.7616 N.3      79      M_A    0.0000
   1097 O          36.1482   71.9743   27.3391 O.2      79      M_A    0.0000
   1098 H          40.0552   72.0844   27.4362 H        79      M_A    0.0000
   1099 H          38.6387   72.5407   28.3597 H        79      M_A    0.0000
   1100 H          38.5460   70.0853   27.8907 H        79      M_A    0.0000
   1101 H          36.5162   69.1096   26.1720 H        79      M_A    0.0000
   1102 H          35.0656   69.9236   26.6251 H        79      M_A    0.0000
   1103 C          38.8041   70.1711   25.7159 C.3      80      M_A    0.0000
   1104 C          38.0643   68.8787   25.3422 C.3      80      M_A    0.0000
   1105 C          38.8495   68.0983   24.2666 C.2      80      M_A    0.0000
   1106 N          38.3170   66.8813   23.8991 N.3      80      M_A    0.0000
   1107 O          39.8738   68.4932   23.7159 O.2      80      M_A    0.0000
   1108 H          38.7342   70.9278   24.9255 H        80      M_A    0.0000
   1109 H          39.8759   69.9673   25.8428 H        80      M_A    0.0000
   1110 H          37.0794   69.1085   24.9138 H        80      M_A    0.0000
   1111 H          37.7579   66.3778   24.5832 H        80      M_A    0.0000
   1112 H          38.8946   66.3148   23.2886 H        80      M_A    0.0000
   1113 C          37.8169   67.9396   26.6147 C.3      81      M_A    0.0000
   1114 C          38.5925   66.6162   26.5473 C.3      81      M_A    0.0000
   1115 C          39.7586   66.7238   25.5419 C.2      81      M_A    0.0000
   1116 N          40.5727   65.6159   25.4456 N.3      81      M_A    0.0000
   1117 O          39.9844   67.6956   24.8254 O.2      81      M_A    0.0000
   1118 H          38.0436   68.5026   27.5279 H        81      M_A    0.0000
   1119 H          36.7371   67.7411   26.6444 H        81      M_A    0.0000
   1120 H          37.9412   65.8053   26.1944 H        81      M_A    0.0000
   1121 H          40.6610   65.0151   26.2612 H        81      M_A    0.0000
   1122 H          41.4071   65.7308   24.8816 H        81      M_A    0.0000
   1123 C          39.1564   66.1777   27.9799 C.3      82      M_A    0.0000
   1124 C          38.2156   65.2259   28.7326 C.3      82      M_A    0.0000
   1125 C          38.4797   64.3420   27.9964 C.2      82      M_A    0.0000
   1126 N          37.9210   63.4573   28.1220 N.3      82      M_A    0.0000
   1127 O          39.1233   64.3830   27.3137 O.2      82      M_A    0.0000
   1128 H          40.1596   65.7523   27.8578 H        82      M_A    0.0000
   1129 H          39.2909   67.1045   28.5537 H        82      M_A    0.0000
   1130 H          37.4186   65.4415   28.5785 H        82      M_A    0.0000
   1131 H          37.6379   63.3009   28.8291 H        82      M_A    0.0000
   1132 H          38.1577   62.8480   27.7055 H        82      M_A    0.0000
   1133 C          38.2635   64.8265   29.8886 C.3      83      M_A    0.0000
   1134 C          37.2075   64.7596   30.3974 C.3      83      M_A    0.0000
   1135 C          36.6871   63.7330   30.1360 C.2      83      M_A    0.0000
   1136 N          35.7536   63.5616   30.5941 N.3      83      M_A    0.0000
   1137 O          37.0330   63.0876   29.5478 O.2      83      M_A    0.0000
   1138 H          38.6698   64.0933   29.9104 H        83      M_A    0.0000
   1139 H          38.7491   65.3706   30.3050 H        83      M_A    0.0000
   1140 H          36.7037   65.3679   30.1119 H        83      M_A    0.0000
   1141 H          35.6139   63.9034   31.2784 H        83      M_A    0.0000
   1142 H          35.4578   62.8515   30.4994 H        83      M_A    0.0000
   1143 C          37.2749   64.8887   31.6128 C.3      84      M_A    0.0000
   1144 C          36.7785   65.8799   31.9993 C.3      84      M_A    0.0000
   1145 C          36.2228   65.6918   33.0235 C.2      84      M_A    0.0000
   1146 N          35.7907   66.5408   33.4742 N.3      84      M_A    0.0000
   1147 O          36.1276   64.8551   33.4394 O.2      84      M_A    0.0000
   1148 H          36.9485   64.2096   31.9807 H        84      M_A    0.0000
   1149 H          38.0925   64.8831   31.8045 H        84      M_A    0.0000
   1150 H          36.1999   66.1517   31.4546 H        84      M_A    0.0000
   1151 H          36.1103   67.2346   33.3287 H        84      M_A    0.0000
   1152 H          35.5105   66.4361   34.1892 H        84      M_A    0.0000
   1153 C          37.5967   66.7803   32.1347 C.3      85      M_A    0.0000
   1154 C          37.6689   67.1755   33.2379 C.3      85      M_A    0.0000
   1155 C          38.4038   66.5028   33.8707 C.2      85      M_A    0.0000
   1156 N          38.5724   66.8148   34.8631 N.3      85      M_A    0.0000
   1157 O          38.8197   65.7198   33.5608 O.2      85      M_A    0.0000
   1158 H          38.3399   66.5235   31.8437 H        85      M_A    0.0000
   1159 H          37.3512   67.3994   31.6232 H        85      M_A    0.0000
   1160 H          36.9190   67.1378   33.6142 H        85      M_A    0.0000
   1161 H          38.5048   67.5724   35.0247 H        85      M_A    0.0000
   1162 H          39.1255   66.4309   35.2470 H        85      M_A    0.0000
   1163 C          38.0366   68.3421   33.2840 C.3      86      M_A    0.0000
   1164 C          37.8853   68.8318   34.3404 C.3      86      M_A    0.0000
   1165 C          38.0840   68.0417   35.1944 C.2      86      M_A    0.0000
   1166 N          38.0231   68.4070   36.1811 N.3      86      M_A    0.0000
   1167 O          38.2681   67.1315   35.0546 O.2      86      M_A    0.0000
   1168 H          38.8331   68.3906   33.0265 H        86      M_A    0.0000
   1169 H          37.5838   68.7539   32.7090 H        86      M_A    0.0000
   1170 H          37.0933   69.0957   34.4321 H        86      M_A    0.0000
   1171 H          38.1829   69.1581   36.3034 H        86      M_A    0.0000
   1172 H          38.2464   67.9146   36.7364 H        86      M_A    0.0000
   1173 C          38.6102   69.8046   34.5032 C.3      87      M_A    0.0000
   1174 C          38.0899   70.8192   34.2235 C.3      87      M_A    0.0000
   1175 C          38.8978   71.6440   33.9780 C.2      87      M_A    0.0000
   1176 N          38.5210   72.5766   33.6637 N.3      87      M_A    0.0000
   1177 O          39.8263   71.5308   34.0615 O.2      87      M_A    0.0000
   1178 H          38.8976   69.8055   35.2909 H        87      M_A    0.0000
   1179 H          39.2816   69.6815   34.0139 H        87      M_A    0.0000
   1180 H          37.6372   71.1064   34.8699 H        87      M_A    0.0000
   1181 H          37.8320   72.5900   33.3035 H        87      M_A    0.0000
   1182 H          39.0489   73.0851   33.4118 H        87      M_A    0.0000
   1183 C          37.3259   70.6968   33.2750 C.3      88      M_A    0.0000
   1184 C          36.5650   71.5856   33.1782 C.3      88      M_A    0.0000
   1185 C          36.0111   71.7690   34.2042 C.2      88      M_A    0.0000
   1186 N          35.3448   72.5852   34.2269 N.3      88      M_A    0.0000
   1187 O          36.1092   71.2375   34.9724 O.2      88      M_A    0.0000
   1188 H          37.7723   70.5876   32.5737 H        88      M_A    0.0000
   1189 H          36.9121   69.9764   33.3983 H        88      M_A    0.0000
   1190 H          35.9728   71.4061   32.6103 H        88      M_A    0.0000
   1191 H          35.4822   73.1827   33.7488 H        88      M_A    0.0000
   1192 H          35.0550   72.7635   34.9233 H        88      M_A    0.0000
   1193 C          37.1107   72.6193   32.8150 C.3      89      M_A    0.0000
   1194 C          36.3511   73.4434   32.4652 C.3      89      M_A    0.0000
   1195 C          35.7132   73.8320   33.3791 C.2      89      M_A    0.0000
   1196 N          35.0389   74.6142   33.1688 N.3      89      M_A    0.0000
   1197 O          35.7535   73.4853   34.2510 O.2      89      M_A    0.0000
   1198 H          37.6138   72.8950   33.4264 H        89      M_A    0.0000
   1199 H          37.6168   72.4067   32.1794 H        89      M_A    0.0000
   1200 H          35.8093   73.1269   31.9069 H        89      M_A    0.0000
   1201 H          35.2088   75.0957   32.5824 H        89      M_A    0.0000
   1202 H          34.6912   74.9329   33.7838 H        89      M_A    0.0000
   1203 C          36.9141   74.3869   31.9258 C.3      90      M_A    0.0000
   1204 C          36.1865   75.2715   31.6676 C.3      90      M_A    0.0000
   1205 C          35.9465   75.9047   32.6342 C.2      90      M_A    0.0000
   1206 N          35.3406   76.7545   32.4878 N.3      90      M_A    0.0000
   1207 O          36.2365   75.6944   33.5024 O.2      90      M_A    0.0000
   1208 H          37.5546   74.6369   32.4057 H        90      M_A    0.0000
   1209 H          37.2587   74.0838   31.2225 H        90      M_A    0.0000
   1210 H          35.4540   74.9767   31.3813 H        90      M_A    0.0000
   1211 H          35.3595   77.1016   31.7922 H        90      M_A    0.0000
   1212 H          35.2621   77.2215   33.1013 H        90      M_A    0.0000
   1213 C          36.6440   76.0034   30.7996 C.3      91      M_A    0.0000
   1214 C          36.9532   77.0612   31.2044 C.2      91      M_A    0.0000
   1215 C          38.0840   77.0601   31.5424 C.2      91      M_A    0.0000
   1216 N          38.4658   77.9855   31.8717 N.3      91      M_A    0.0000
   1217 O          38.6423   76.3049   31.5545 O.2      91      M_A    0.0000
   1218 H          37.2815   75.6142   30.4186 H        91      M_A    0.0000
   1219 H          36.0429   76.0825   30.2185 H        91      M_A    0.0000
   1220 H          36.4971   77.2631   31.8801 H        91      M_A    0.0000
   1221 H          38.1477   78.6349   31.5858 H        91      M_A    0.0000
   1222 H          39.2295   78.0071   32.0022 H        91      M_A    0.0000
   1223 C          32.9320   72.0346   16.7631 C.2      92      M_A    0.0000
   1224 C          31.6267   71.5787   17.4306 C.3      92      M_A    0.0000
   1225 C          31.8760   71.2076   18.9080 C.2      92      M_A    0.0000
   1226 N          30.7606   70.8481   19.6333 N.3      92      M_A    0.0000
   1227 O          32.9759   71.1885   19.4542 O.2      92      M_A    0.0000
   1228 H          33.7407   71.3074   16.9028 H        92      M_A    0.0000
   1229 H          33.2839   72.9673   17.2240 H        92      M_A    0.0000
   1230 H          31.2356   70.6785   16.9376 H        92      M_A    0.0000
   1231 H          29.8628   71.2342   19.3527 H        92      M_A    0.0000
   1232 H          30.9041   70.7264   20.6293 H        92      M_A    0.0000
   1233 C          30.4851   72.6975   17.3424 C.3      93      M_A    0.0000
   1234 C          29.0661   72.1112   17.3287 C.3      93      M_A    0.0000
   1235 C          28.0146   73.2411   17.3213 C.2      93      M_A    0.0000
   1236 N          26.6995   72.8370   17.2388 N.3      93      M_A    0.0000
   1237 O          28.2673   74.4399   17.4075 O.2      93      M_A    0.0000
   1238 H          30.6237   73.4190   18.1563 H        93      M_A    0.0000
   1239 H          30.6711   73.2531   16.4134 H        93      M_A    0.0000
   1240 H          28.8867   71.5148   18.2335 H        93      M_A    0.0000
   1241 H          26.4985   71.9550   16.7744 H        93      M_A    0.0000
   1242 H          26.0194   73.5771   17.1081 H        93      M_A    0.0000
   1243 C          28.8277   71.1464   16.0738 C.3      94      M_A    0.0000
   1244 C          27.8005   70.0394   16.3510 C.3      94      M_A    0.0000
   1245 C          27.2901   69.4319   15.0271 C.2      94      M_A    0.0000
   1246 N          26.4115   68.3770   15.1497 N.3      94      M_A    0.0000
   1247 O          27.5886   69.8338   13.9056 O.2      94      M_A    0.0000
   1248 H          28.5546   71.7511   15.2008 H        94      M_A    0.0000
   1249 H          29.8042   70.7024   15.8381 H        94      M_A    0.0000
   1250 H          26.9246   70.4482   16.8726 H        94      M_A    0.0000
   1251 H          26.4745   67.7966   15.9823 H        94      M_A    0.0000
   1252 H          26.1748   67.8993   14.2877 H        94      M_A    0.0000
   1253 C          28.4021   68.8810   17.2776 C.3      95      M_A    0.0000
   1254 C          27.3627   68.2665   18.2260 C.3      95      M_A    0.0000
   1255 C          26.9513   67.1027   17.7599 C.2      95      M_A    0.0000
   1256 N          26.2792   66.4664   18.4889 N.3      95      M_A    0.0000
   1257 O          27.1609   66.7291   16.8014 O.2      95      M_A    0.0000
   1258 H          28.8788   68.1235   16.6441 H        95      M_A    0.0000
   1259 H          29.2134   69.3417   17.8571 H        95      M_A    0.0000
   1260 H          26.5954   68.7865   18.3756 H        95      M_A    0.0000
   1261 H          26.3859   66.5769   19.3444 H        95      M_A    0.0000
   1262 H          26.0985   65.6606   18.2266 H        95      M_A    0.0000
   1263 C          27.9704   68.0872   19.4388 C.3      96      M_A    0.0000
   1264 C          28.8024   67.0723   19.4534 C.3      96      M_A    0.0000
   1265 C          28.4100   66.1410   18.6050 C.2      96      M_A    0.0000
   1266 N          29.1239   65.2099   18.4986 N.3      96      M_A    0.0000
   1267 O          27.5180   66.1668   18.0520 O.2      96      M_A    0.0000
   1268 H          28.3869   68.8865   19.6960 H        96      M_A    0.0000
   1269 H          27.2804   67.9459   20.0596 H        96      M_A    0.0000
   1270 H          28.8226   66.6749   20.3038 H        96      M_A    0.0000
   1271 H          29.9714   65.3247   18.6540 H        96      M_A    0.0000
   1272 H          28.9227   64.6521   17.8669 H        96      M_A    0.0000
   1273 C          30.0825   67.4543   19.1570 C.3      97      M_A    0.0000
   1274 C          30.9182   67.2724   20.1526 C.3      97      M_A    0.0000
   1275 C          31.5422   66.1167   20.0267 C.2      97      M_A    0.0000
   1276 N          32.3608   65.8839   20.8414 N.3      97      M_A    0.0000
   1277 O          31.3456   65.4036   19.2816 O.2      97      M_A    0.0000
   1278 H          30.3630   67.0145   18.3783 H        97      M_A    0.0000
   1279 H          30.0399   68.3657   18.9360 H        97      M_A    0.0000
   1280 H          30.4564   67.2450   20.9696 H        97      M_A    0.0000
   1281 H          32.7643   66.5549   21.2188 H        97      M_A    0.0000
   1282 H          32.8429   65.1782   20.6990 H        97      M_A    0.0000
   1283 C          31.8363   68.2831   20.2428 C.3      98      M_A    0.0000
   1284 C          32.2755   68.4728   21.4649 C.3      98      M_A    0.0000
   1285 C          32.4731   67.3169   22.0695 C.2      98      M_A    0.0000
   1286 N          32.9254   67.3764   23.1558 N.3      98      M_A    0.0000
   1287 O          32.2393   66.3770   21.6642 O.2      98      M_A    0.0000
   1288 H          32.5350   68.1194   19.6399 H        98      M_A    0.0000
   1289 H          31.4054   69.0574   19.9325 H        98      M_A    0.0000
   1290 H          31.6410   68.9416   21.9741 H        98      M_A    0.0000
   1291 H          33.4252   68.0595   23.3535 H        98      M_A    0.0000
   1292 H          33.1541   66.6194   23.5098 H        98      M_A    0.0000
   1293 C          33.4304   69.2064   21.4867 C.3      99      M_A    0.0000
   1294 C          33.2244   70.4961   21.3567 C.3      99      M_A    0.0000
   1295 C          32.5932   70.9719   22.4132 C.2      99      M_A    0.0000
   1296 N          32.4122   72.1360   22.4218 N.3      99      M_A    0.0000
   1297 O          32.2339   70.3930   23.2119 O.2      99      M_A    0.0000
   1298 H          33.9094   69.0041   22.2666 H        99      M_A    0.0000
   1299 H          33.9547   68.8915   20.7744 H        99      M_A    0.0000
   1300 H          32.6786   70.6692   20.6126 H        99      M_A    0.0000
   1301 H          32.9725   72.6400   21.9888 H        99      M_A    0.0000
   1302 H          32.0954   72.4618   23.1595 H        99      M_A    0.0000
   1303 C          34.3914   71.1855   21.1692 C.3     100      M_A    0.0000
   1304 C          34.6749   71.3842   19.9032 C.3     100      M_A    0.0000
   1305 C          33.8682   72.2911   19.3858 C.2     100      M_A    0.0000
   1306 N          34.0791   72.5861   18.2649 N.3     100      M_A    0.0000
   1307 O          33.0613   72.7367   19.8883 O.2     100      M_A    0.0000
   1308 H          34.3558   71.9886   21.6513 H       100      M_A    0.0000
   1309 H          35.0666   70.6733   21.5730 H       100      M_A    0.0000
   1310 H          34.5498   70.5952   19.4098 H       100      M_A    0.0000
   1311 H          34.8929   72.5110   17.9686 H       100      M_A    0.0000
   1312 H          33.6208   73.2550   17.9595 H       100      M_A    0.0000
   1313 C          35.9755   71.7695   19.7232 C.3     101      M_A    0.0000
   1314 C          36.6442   70.9702   18.9253 C.3     101      M_A    0.0000
   1315 C          36.2107   71.0876   17.6846 C.2     101      M_A    0.0000
   1316 N          36.7880   70.4531   16.8770 N.3     101      M_A    0.0000
   1317 O          35.3947   71.6760   17.3844 O.2     101      M_A    0.0000
   1318 H          35.9954   72.6586   19.4270 H       101      M_A    0.0000
   1319 H          36.3682   71.7741   20.5760 H       101      M_A    0.0000
   1320 H          36.5171   70.0740   19.1746 H       101      M_A    0.0000
   1321 H          37.6223   70.2612   17.0279 H       101      M_A    0.0000
   1322 H          36.5746   70.6107   16.0522 H       101      M_A    0.0000
   1323 C          37.9902   71.2126   18.9669 C.3     102      M_A    0.0000
   1324 C          38.7032   70.1289   19.1667 C.3     102      M_A    0.0000
   1325 C          38.2149   69.1199   18.4707 C.2     102      M_A    0.0000
   1326 N          38.8206   68.1115   18.5346 N.3     102      M_A    0.0000
   1327 O          37.3352   69.1522   17.8984 O.2     102      M_A    0.0000
   1328 H          38.2467   71.6627   18.1857 H       102      M_A    0.0000
   1329 H          38.1258   71.8203   19.6696 H       102      M_A    0.0000
   1330 H          38.6727   69.8764   20.0705 H       102      M_A    0.0000
   1331 H          39.6745   68.1567   18.6907 H       102      M_A    0.0000
   1332 H          38.5627   67.4832   17.9966 H       102      M_A    0.0000
   1333 C          40.0201   70.3148   18.8448 C.3     103      M_A    0.0000
   1334 C          40.8101   70.3266   19.8929 C.3     103      M_A    0.0000
   1335 C          42.0031   69.8596   19.5775 C.2     103      M_A    0.0000
   1336 N          42.8076   69.8836   20.4378 N.3     103      M_A    0.0000
   1337 O          42.2661   69.4600   18.6429 O.2     103      M_A    0.0000
   1338 H          40.2784   69.6680   18.2176 H       103      M_A    0.0000
   1339 H          40.0671   71.1391   18.3979 H       103      M_A    0.0000
   1340 H          40.4697   69.7704   20.5684 H       103      M_A    0.0000
   1341 H          42.7298   70.4923   21.0533 H       103      M_A    0.0000
   1342 H          43.6158   69.6781   20.2026 H       103      M_A    0.0000
   1343 C          40.9337   71.5801   20.4278 C.3     104      M_A    0.0000
   1344 C          40.6717   71.6200   21.7132 C.2     104      M_A    0.0000
   1345 C          41.7733   71.4342   22.4152 C.2     104      M_A    0.0000
   1346 N          41.6557   71.5112   23.5849 N.3     104      M_A    0.0000
   1347 O          42.7150   71.2074   22.0102 O.2     104      M_A    0.0000
   1348 H          41.7869   71.9157   20.2326 H       104      M_A    0.0000
   1349 H          40.3299   72.1258   19.9598 H       104      M_A    0.0000
   1350 H          40.0784   70.9319   21.9501 H       104      M_A    0.0000
   1351 H          41.0216   72.0156   23.8997 H       104      M_A    0.0000
   1352 H          42.3935   71.4959   24.0388 H       104      M_A    0.0000
   1353 C          54.1125   73.5019   18.0554 C.2     105      M_A    0.0000
   1354 C          53.2624   73.4671   17.9483 C.3     105      M_A    0.0000
   1355 C          52.9883   72.6502   17.9730 C.2     105      M_A    0.0000
   1356 N          52.2268   72.5503   17.9217 N.3     105      M_A    0.0000
   1357 O          53.3948   72.0997   18.0197 O.2     105      M_A    0.0000
   1358 H          54.2656   73.6474   18.6302 H       105      M_A    0.0000
   1359 H          54.3507   73.9427   17.7016 H       105      M_A    0.0000
   1360 H          53.1053   73.6910   17.3993 H       105      M_A    0.0000
   1361 H          51.8896   72.9676   18.1079 H       105      M_A    0.0000
   1362 H          52.0420   72.0222   18.0078 H       105      M_A    0.0000
   1363 C          52.8273   73.9486   18.5632 C.3     106      M_A    0.0000
   1364 C          52.7839   73.5601   19.3264 C.3     106      M_A    0.0000
   1365 C          53.4213   73.8310   19.8397 C.2     106      M_A    0.0000
   1366 N          53.4177   73.5493   20.5560 N.3     106      M_A    0.0000
   1367 O          53.9242   74.2577   19.6512 O.2     106      M_A    0.0000
   1368 H          53.0832   74.5036   18.6025 H       106      M_A    0.0000
   1369 H          52.2626   74.0396   18.3416 H       106      M_A    0.0000
   1370 H          52.8517   72.9537   19.2634 H       106      M_A    0.0000
   1371 H          52.9188   73.3972   20.7807 H       106      M_A    0.0000
   1372 H          53.7928   73.7792   20.9122 H       106      M_A    0.0000
   1373 C          51.9967   73.6965   19.7275 C.3     107      M_A    0.0000
   1374 C          51.5151   72.9885   19.7737 C.3     107      M_A    0.0000
   1375 C          51.9134   72.3825   20.2398 C.2     107      M_A    0.0000
   1376 N          51.5171   71.7325   20.3536 N.3     107      M_A    0.0000
   1377 O          52.5475   72.4360   20.4958 O.2     107      M_A    0.0000
   1378 H          52.0920   73.9456   20.2788 H       107      M_A    0.0000
   1379 H          51.7081   74.1254   19.3973 H       107      M_A    0.0000
   1380 H          51.4251   72.7525   19.2147 H       107      M_A    0.0000
   1381 H          50.9500   71.7620   20.3533 H       107      M_A    0.0000
   1382 H          51.7482   71.3641   20.7160 H       107      M_A    0.0000
   1383 C          50.7087   73.1539   20.1223 C.3     108      M_A    0.0000
   1384 C          50.1209   73.3543   19.5310 C.3     108      M_A    0.0000
   1385 C          49.3570   73.0119   19.7367 C.2     108      M_A    0.0000
   1386 N          48.7736   73.1863   19.2659 N.3     108      M_A    0.0000
   1387 O          49.2429   72.5949   20.2693 O.2     108      M_A    0.0000
   1388 H          50.5359   72.6769   20.4653 H       108      M_A    0.0000
   1389 H          50.7829   73.6222   20.5115 H       108      M_A    0.0000
   1390 H          50.2779   73.1238   18.9847 H       108      M_A    0.0000
   1391 H          48.7961   73.6786   18.9837 H       108      M_A    0.0000
   1392 H          48.2606   73.0201   19.4383 H       108      M_A    0.0000
   1393 C          50.0361   74.2384   19.4290 C.3     109      M_A    0.0000
   1394 C          49.2562   74.5280   19.6368 C.3     109      M_A    0.0000
   1395 C          48.7120   73.8703   19.7570 C.2     109      M_A    0.0000
   1396 N          48.0016   74.0601   19.9845 N.3     109      M_A    0.0000
   1397 O          48.8636   73.2097   19.6519 O.2     109      M_A    0.0000
   1398 H          50.4776   74.5209   19.7456 H       109      M_A    0.0000
   1399 H          50.1525   74.3547   18.8381 H       109      M_A    0.0000
   1400 H          49.0252   74.8694   19.1825 H       109      M_A    0.0000
   1401 H          47.9354   74.5398   20.2812 H       109      M_A    0.0000
   1402 H          47.6667   73.6277   20.1303 H       109      M_A    0.0000
   1403 C          49.2733   75.0412   20.3687 C.3     110      M_A    0.0000
   1404 C          48.5342   75.4528   20.5088 C.3     110      M_A    0.0000
   1405 C          47.9005   75.1029   20.0407 C.2     110      M_A    0.0000
   1406 N          47.1994   75.4016   20.1490 N.3     110      M_A    0.0000
   1407 O          47.9818   74.6000   19.5813 O.2     110      M_A    0.0000
   1408 H          49.4412   74.7009   20.8493 H       110      M_A    0.0000
   1409 H          49.7261   75.4461   20.2835 H       110      M_A    0.0000
   1410 H          48.5789   76.0400   20.3371 H       110      M_A    0.0000
   1411 H          47.0831   75.6335   20.6542 H       110      M_A    0.0000
   1412 H          46.7738   75.1275   19.8956 H       110      M_A    0.0000
   1413 C          48.3068   75.4481   21.3734 C.3     111      M_A    0.0000
   1414 C          47.4631   75.3603   21.4991 C.2     111      M_A    0.0000
   1415 C          47.2547   74.5275   21.5775 C.2     111      M_A    0.0000
   1416 N          46.5151   74.3799   21.7314 N.3     111      M_A    0.0000
   1417 O          47.6904   74.0035   21.4994 O.2     111      M_A    0.0000
   1418 H          48.6283   75.0154   21.6639 H       111      M_A    0.0000
   1419 H          48.4987   75.9831   21.6040 H       111      M_A    0.0000
   1420 H          47.1500   75.5776   21.0184 H       111      M_A    0.0000
   1421 H          46.2169   74.7737   22.0116 H       111      M_A    0.0000
   1422 H          46.3921   73.8406   21.8516 H       111      M_A    0.0000
   1423 C          63.2271   65.2535   19.1221 C.2     112      M_A    0.0000
   1424 C          63.2122   63.7181   19.1258 C.3     112      M_A    0.0000
   1425 C          64.4140   63.1679   19.9229 C.2     112      M_A    0.0000
   1426 N          64.4696   61.7972   20.0556 N.3     112      M_A    0.0000
   1427 O          65.3102   63.8524   20.4095 O.2     112      M_A    0.0000
   1428 H          62.7505   65.6711   20.0169 H       112      M_A    0.0000
   1429 H          62.6489   65.6328   18.2689 H       112      M_A    0.0000
   1430 H          63.3035   63.3293   18.1026 H       112      M_A    0.0000
   1431 H          63.5949   61.2790   20.0358 H       112      M_A    0.0000
   1432 H          65.1850   61.4445   20.6811 H       112      M_A    0.0000
   1433 C          61.8512   63.1329   19.7323 C.3     113      M_A    0.0000
   1434 C          60.9618   62.4591   18.6775 C.3     113      M_A    0.0000
   1435 C          61.2100   60.9359   18.6545 C.2     113      M_A    0.0000
   1436 N          60.4159   60.2110   17.7922 N.3     113      M_A    0.0000
   1437 O          62.0622   60.3503   19.3173 O.2     113      M_A    0.0000
   1438 H          62.0878   62.4570   20.5626 H       113      M_A    0.0000
   1439 H          61.3231   63.9854   20.1800 H       113      M_A    0.0000
   1440 H          61.2008   62.8362   17.6740 H       113      M_A    0.0000
   1441 H          59.4940   60.5775   17.5689 H       113      M_A    0.0000
   1442 H          60.4910   59.2031   17.8674 H       113      M_A    0.0000
   1443 C          59.4076   62.7471   18.9309 C.3     114      M_A    0.0000
   1444 C          58.4951   62.0967   17.8813 C.3     114      M_A    0.0000
   1445 C          57.5326   61.5516   18.3024 C.2     114      M_A    0.0000
   1446 N          57.0193   60.9301   17.6190 N.3     114      M_A    0.0000
   1447 O          57.2164   61.6195   19.1869 O.2     114      M_A    0.0000
   1448 H          59.1455   62.4397   19.9503 H       114      M_A    0.0000
   1449 H          59.2897   63.8387   18.9066 H       114      M_A    0.0000
   1450 H          59.0445   61.4942   17.6704 H       114      M_A    0.0000
   1451 H          57.0677   61.1014   16.8599 H       114      M_A    0.0000
   1452 H          56.3376   60.6493   17.8649 H       114      M_A    0.0000
   1453 C          58.2094   62.7011   16.8518 C.3     115      M_A    0.0000
   1454 C          57.0550   62.7005   16.6206 C.3     115      M_A    0.0000
   1455 C          56.5190   61.8115   17.1891 C.2     115      M_A    0.0000
   1456 N          55.4686   61.7638   17.0828 N.3     115      M_A    0.0000
   1457 O          56.9585   61.1525   17.6985 O.2     115      M_A    0.0000
   1458 H          58.5219   63.4806   16.8931 H       115      M_A    0.0000
   1459 H          58.6280   62.3177   16.2298 H       115      M_A    0.0000
   1460 H          56.9184   62.5821   15.7980 H       115      M_A    0.0000
   1461 H          55.0830   62.4283   16.9498 H       115      M_A    0.0000
   1462 H          55.1077   61.2411   17.5307 H       115      M_A    0.0000
   1463 C          56.5241   63.7644   16.9254 C.3     116      M_A    0.0000
   1464 C          56.4369   64.5133   16.0211 C.3     116      M_A    0.0000
   1465 C          55.3718   64.4264   15.5124 C.2     116      M_A    0.0000
   1466 N          55.1829   65.1014   14.7215 N.3     116      M_A    0.0000
   1467 O          54.7096   63.7996   15.7480 O.2     116      M_A    0.0000
   1468 H          55.7774   63.6094   17.2792 H       116      M_A    0.0000
   1469 H          57.0015   64.1002   17.5325 H       116      M_A    0.0000
   1470 H          57.0064   64.3289   15.4287 H       116      M_A    0.0000
   1471 H          55.5562   65.7859   14.7265 H       116      M_A    0.0000
   1472 H          54.4539   65.1100   14.4522 H       116      M_A    0.0000
   1473 C          56.6364   65.6746   16.3647 C.3     117      M_A    0.0000
   1474 C          57.5409   66.1747   15.8008 C.3     117      M_A    0.0000
   1475 C          57.4520   67.3543   15.8393 C.2     117      M_A    0.0000
   1476 N          58.2512   67.8907   15.4029 N.3     117      M_A    0.0000
   1477 O          56.7266   67.8302   16.2057 O.2     117      M_A    0.0000
   1478 H          55.9262   66.1156   16.2744 H       117      M_A    0.0000
   1479 H          56.7898   65.6522   17.1924 H       117      M_A    0.0000
   1480 H          57.5395   65.9560   14.9876 H       117      M_A    0.0000
   1481 H          58.9545   67.5544   15.3896 H       117      M_A    0.0000
   1482 H          58.2405   68.6601   15.5123 H       117      M_A    0.0000
   1483 C          58.6221   65.8272   16.2665 C.3     118      M_A    0.0000
   1484 C          59.5373   66.1471   15.5986 C.3     118      M_A    0.0000
   1485 C          59.3338   65.8838   14.4629 C.2     118      M_A    0.0000
   1486 N          60.0816   66.1842   13.7793 N.3     118      M_A    0.0000
   1487 O          58.5794   65.4200   14.1423 O.2     118      M_A    0.0000
   1488 H          58.6900   66.1159   17.0532 H       118      M_A    0.0000
   1489 H          58.5918   64.9881   16.3309 H       118      M_A    0.0000
   1490 H          60.2307   65.7268   15.8265 H       118      M_A    0.0000
   1491 H          60.5177   66.8042   13.9621 H       118      M_A    0.0000
   1492 H          59.9054   66.0980   13.0273 H       118      M_A    0.0000
   1493 C          59.7889   67.3438   15.7058 C.3     119      M_A    0.0000
   1494 C          60.8233   67.5538   16.2275 C.3     119      M_A    0.0000
   1495 C          61.6811   67.6604   15.4190 C.2     119      M_A    0.0000
   1496 N          62.6390   67.9036   15.7934 N.3     119      M_A    0.0000
   1497 O          61.5711   67.5268   14.4933 O.2     119      M_A    0.0000
   1498 H          59.7388   67.7057   14.9485 H       119      M_A    0.0000
   1499 H          59.1636   67.6758   16.1617 H       119      M_A    0.0000
   1500 H          61.0377   66.9113   16.7280 H       119      M_A    0.0000
   1501 H          62.6808   68.3067   16.4595 H       119      M_A    0.0000
   1502 H          63.1785   68.0674   15.2585 H       119      M_A    0.0000
   1503 C          60.7891   68.5613   16.9277 C.3     120      M_A    0.0000
   1504 C          60.8757   68.3277   18.0784 C.2     120      M_A    0.0000
   1505 C          62.0081   68.3502   18.4217 C.2     120      M_A    0.0000
   1506 N          62.1793   68.2035   19.4542 N.3     120      M_A    0.0000
   1507 O          62.7450   68.4675   17.8471 O.2     120      M_A    0.0000
   1508 H          61.3828   69.0977   16.6696 H       120      M_A    0.0000
   1509 H          60.0530   68.9365   16.7646 H       120      M_A    0.0000
   1510 H          60.5849   67.5552   18.2459 H       120      M_A    0.0000
   1511 H          61.6181   68.4148   19.9526 H       120      M_A    0.0000
   1512 H          62.9104   68.3132   19.6938 H       120      M_A    0.0000
   1513 C          63.0800   70.7501   24.9905 C.2     121      M_A    0.0000
   1514 C          62.0408   71.4571   24.1088 C.3     121      M_A    0.0000
   1515 C          60.6872   71.5576   24.8437 C.2     121      M_A    0.0000
   1516 N          59.6907   72.2372   24.1768 N.3     121      M_A    0.0000
   1517 O          60.4422   71.0629   25.9409 O.2     121      M_A    0.0000
   1518 H          63.2727   71.2997   25.9196 H       121      M_A    0.0000
   1519 H          64.0440   70.6980   24.4668 H       121      M_A    0.0000
   1520 H          61.8621   70.8843   23.1888 H       121      M_A    0.0000
   1521 H          59.9645   72.9620   23.5182 H       121      M_A    0.0000
   1522 H          58.8453   72.4112   24.7082 H       121      M_A    0.0000
   1523 C          62.5229   72.9184   23.6676 C.3     122      M_A    0.0000
   1524 C          61.9884   73.3396   22.2913 C.3     122      M_A    0.0000
   1525 C          62.9375   72.8595   21.1728 C.2     122      M_A    0.0000
   1526 N          62.5261   73.1194   19.8833 N.3     122      M_A    0.0000
   1527 O          64.0158   72.3003   21.3549 O.2     122      M_A    0.0000
   1528 H          62.2550   73.6381   24.4502 H       122      M_A    0.0000
   1529 H          63.6206   72.8874   23.6509 H       122      M_A    0.0000
   1530 H          61.9359   74.4342   22.2166 H       122      M_A    0.0000
   1531 H          61.5274   73.1889   19.7049 H       122      M_A    0.0000
   1532 H          63.0835   72.6964   19.1500 H       122      M_A    0.0000
   1533 C          60.5135   72.7781   22.0229 C.3     123      M_A    0.0000
   1534 C          59.6755   73.6928   21.1182 C.3     123      M_A    0.0000
   1535 C          59.6584   75.1330   21.6730 C.2     123      M_A    0.0000
   1536 N          58.9924   76.0643   20.9057 N.3     123      M_A    0.0000
   1537 O          60.1638   75.4854   22.7355 O.2     123      M_A    0.0000
   1538 H          60.5827   71.7585   21.6253 H       123      M_A    0.0000
   1539 H          60.0367   72.6847   23.0079 H       123      M_A    0.0000
   1540 H          58.6320   73.3515   21.0856 H       123      M_A    0.0000
   1541 H          58.9391   75.9072   19.9024 H       123      M_A    0.0000
   1542 H          59.0870   77.0284   21.2036 H       123      M_A    0.0000
   1543 C          60.2148   73.7033   19.6110 C.3     124      M_A    0.0000
   1544 C          59.7662   74.9396   18.8188 C.3     124      M_A    0.0000
   1545 C          60.8564   76.0315   18.8578 C.2     124      M_A    0.0000
   1546 N          60.5960   77.1667   18.1209 N.3     124      M_A    0.0000
   1547 O          61.8981   75.9649   19.5050 O.2     124      M_A    0.0000
   1548 H          61.3058   73.5933   19.6177 H       124      M_A    0.0000
   1549 H          59.8239   72.7921   19.1387 H       124      M_A    0.0000
   1550 H          58.8621   75.3759   19.2646 H       124      M_A    0.0000
   1551 H          59.9950   77.0800   17.3053 H       124      M_A    0.0000
   1552 H          61.3612   77.8270   18.0450 H       124      M_A    0.0000
   1553 C          59.4162   74.5831   17.2979 C.3     125      M_A    0.0000
   1554 C          57.9213   74.3176   17.0695 C.3     125      M_A    0.0000
   1555 C          57.1556   75.6473   16.9023 C.2     125      M_A    0.0000
   1556 N          55.8110   75.5348   16.6215 N.3     125      M_A    0.0000
   1557 O          57.6490   76.7653   17.0254 O.2     125      M_A    0.0000
   1558 H          59.7970   75.3771   16.6446 H       125      M_A    0.0000
   1559 H          59.9992   73.6856   17.0511 H       125      M_A    0.0000
   1560 H          57.4839   73.8049   17.9368 H       125      M_A    0.0000
   1561 H          55.4927   74.7021   16.1324 H       125      M_A    0.0000
   1562 H          55.3363   76.3997   16.3890 H       125      M_A    0.0000
   1563 C          57.6656   73.3857   15.7933 C.3     126      M_A    0.0000
   1564 C          60.6702   71.2470   20.6810 C.2     126      M_A    0.0000
   1565 C          56.7350   68.7816   24.7212 C.2     126      M_A    0.0000
   1566 N          58.9988   66.4718   29.1651 N.3     126      M_A    0.0000
   1567 O          51.8566   68.8377   24.2875 O.2     126      M_A    0.0000
   1568 H          54.1229   70.9938   14.8720 H       126      M_A    0.0000
   1569 H          60.2221   73.1562   12.2444 H       126      M_A    0.0000
   1570 H          62.7475   74.4993   22.7529 H       126      M_A    0.0000
   1571 H          62.7542   64.9779   28.8340 H       126      M_A    0.0000
   1572 H          56.4671   64.4239   31.5598 H       126      M_A    0.0000
   1573 C          62.5044   50.9646   26.2340 C.2     127      M_A    0.0000
   1574 C          61.4346   50.0182   25.6708 C.3     127      M_A    0.0000
   1575 C          60.8340   49.5457   26.5629 C.2     127      M_A    0.0000
   1576 N          60.2407   48.7141   26.3249 N.3     127      M_A    0.0000
   1577 O          60.8660   49.8432   27.4485 O.2     127      M_A    0.0000
   1578 H          62.1104   51.9731   26.4077 H       127      M_A    0.0000
   1579 H          63.3213   51.0820   25.5094 H       127      M_A    0.0000
   1580 H          61.9685   49.4341   25.4015 H       127      M_A    0.0000
   1581 H          59.9676   48.6566   25.6031 H       127      M_A    0.0000
   1582 H          59.7750   48.4635   26.8864 H       127      M_A    0.0000
   1583 C          60.6753   50.2616   24.7497 C.3     128      M_A    0.0000
   1584 C          60.5452   51.4060   24.5525 C.3     128      M_A    0.0000
   1585 C          61.5926   51.9335   24.4857 C.2     128      M_A    0.0000
   1586 N          61.5750   52.9571   24.2573 N.3     128      M_A    0.0000
   1587 O          62.4147   51.5155   24.6377 O.2     128      M_A    0.0000
   1588 H          60.9313   49.8540   24.0680 H       128      M_A    0.0000
   1589 H          59.9403   49.9217   24.9568 H       128      M_A    0.0000
   1590 H          60.1316   51.7671   25.1828 H       128      M_A    0.0000
   1591 H          60.9801   53.2273   23.8426 H       128      M_A    0.0000
   1592 H          62.2613   53.2813   24.1200 H       128      M_A    0.0000
   1593 C          59.9110   51.6248   23.5356 C.3     129      M_A    0.0000
   1594 C          59.9493   52.7443   23.2030 C.3     129      M_A    0.0000
   1595 C          61.0150   53.0140   22.7888 C.2     129      M_A    0.0000
   1596 N          61.1275   53.9881   22.4163 N.3     129      M_A    0.0000
   1597 O          61.7518   52.4389   22.7882 O.2     129      M_A    0.0000
   1598 H          60.1727   51.1104   22.9329 H       129      M_A    0.0000
   1599 H          59.1222   51.4022   23.6998 H       129      M_A    0.0000
   1600 H          59.8074   53.2489   23.8542 H       129      M_A    0.0000
   1601 H          60.5018   54.3432   22.1311 H       129      M_A    0.0000
   1602 H          61.7951   54.1348   22.0590 H       129      M_A    0.0000
   1603 C          59.1064   52.9997   22.3613 C.3     130      M_A    0.0000
   1604 C          59.5253   53.6244   21.4671 C.3     130      M_A    0.0000
   1605 C          59.0379   53.2749   20.4571 C.2     130      M_A    0.0000
   1606 N          59.3161   53.8174   19.6036 N.3     130      M_A    0.0000
   1607 O          58.4508   52.5533   20.3661 O.2     130      M_A    0.0000
   1608 H          58.7490   52.2899   22.1066 H       130      M_A    0.0000
   1609 H          58.5067   53.4294   22.7542 H       130      M_A    0.0000
   1610 H          60.3499   53.5107   21.3907 H       130      M_A    0.0000
   1611 H          59.5262   54.5566   19.6947 H       130      M_A    0.0000
   1612 H          58.9261   53.6509   18.9593 H       130      M_A    0.0000
   1613 C          59.3408   54.8191   21.6187 C.3     131      M_A    0.0000
   1614 C          58.7684   55.3117   20.7271 C.3     131      M_A    0.0000
   1615 C          58.6989   56.4749   20.8753 C.2     131      M_A    0.0000
   1616 N          58.2458   57.0089   20.0945 N.3     131      M_A    0.0000
   1617 O          58.9954   56.9382   21.6311 O.2     131      M_A    0.0000
   1618 H          58.9543   54.9468   22.3472 H       131      M_A    0.0000
   1619 H          60.0980   55.1642   21.6980 H       131      M_A    0.0000
   1620 H          57.9842   55.0250   20.6876 H       131      M_A    0.0000
   1621 H          58.2851   56.7130   19.3805 H       131      M_A    0.0000
   1622 H          58.2853   57.7775   20.1475 H       131      M_A    0.0000
   1623 C          59.2940   55.0664   19.6557 C.3     132      M_A    0.0000
   1624 C          59.9490   55.9466   19.2537 C.3     132      M_A    0.0000
   1625 C          59.3032   56.9211   19.1396 C.2     132      M_A    0.0000
   1626 N          59.8218   57.7798   18.8333 N.3     132      M_A    0.0000
   1627 O          58.3808   56.9732   19.2815 O.2     132      M_A    0.0000
   1628 H          59.7287   54.3569   19.7194 H       132      M_A    0.0000
   1629 H          58.6715   54.9060   19.1214 H       132      M_A    0.0000
   1630 H          60.2506   55.7653   18.4955 H       132      M_A    0.0000
   1631 H          60.5731   57.8339   19.0108 H       132      M_A    0.0000
   1632 H          59.4195   58.4378   18.8503 H       132      M_A    0.0000
   1633 C          60.9047   56.1710   19.9752 C.3     133      M_A    0.0000
   1634 C          61.7046   56.8610   19.4758 C.3     133      M_A    0.0000
   1635 C          62.0979   57.6578   20.2441 C.2     133      M_A    0.0000
   1636 N          62.8603   58.2894   19.8977 N.3     133      M_A    0.0000
   1637 O          61.7705   57.7736   21.1120 O.2     133      M_A    0.0000
   1638 H          60.6337   56.4810   20.7011 H       133      M_A    0.0000
   1639 H          61.2410   55.4274   20.1555 H       133      M_A    0.0000
   1640 H          61.3695   57.2843   18.8376 H       133      M_A    0.0000
   1641 H          63.3310   58.0221   19.3446 H       133      M_A    0.0000
   1642 H          63.1832   58.7466   20.4284 H       133      M_A    0.0000
   1643 C          62.6427   56.2242   19.0303 C.3     134      M_A    0.0000
   1644 C          63.6735   56.5599   19.4664 C.3     134      M_A    0.0000
   1645 C          63.6656   57.7108   19.7014 C.2     134      M_A    0.0000
   1646 N          64.5350   58.0922   20.1472 N.3     134      M_A    0.0000
   1647 O          62.9621   58.2938   19.5042 O.2     134      M_A    0.0000
   1648 H          62.5030   55.4101   19.1493 H       134      M_A    0.0000
   1649 H          62.6313   56.3395   18.2025 H       134      M_A    0.0000
   1650 H          64.2837   56.4302   18.9100 H       134      M_A    0.0000
   1651 H          64.9623   57.6134   20.5797 H       134      M_A    0.0000
   1652 H          64.4945   58.8240   20.3877 H       134      M_A    0.0000
   1653 C          63.9678   55.9388   20.4723 C.3     135      M_A    0.0000
   1654 C          65.0856   55.5988   20.4911 C.2     135      M_A    0.0000
   1655 C          65.7534   56.4100   21.0163 C.2     135      M_A    0.0000
   1656 N          66.7675   56.1657   21.1264 N.3     135      M_A    0.0000
   1657 O          65.4510   57.2422   21.3157 O.2     135      M_A    0.0000
   1658 H          63.7677   56.3926   21.1434 H       135      M_A    0.0000
   1659 H          63.4655   55.2709   20.4898 H       135      M_A    0.0000
   1660 H          65.3784   55.5102   19.7132 H       135      M_A    0.0000
   1661 H          66.9581   55.4174   21.1777 H       135      M_A    0.0000
   1662 H          67.1850   56.6537   21.5537 H       135      M_A    0.0000
   1663 C          19.6022   70.4088   32.7119 C.2     136      M_A    0.0000
   1664 C          18.4129   70.8508   31.8471 C.3     136      M_A    0.0000
   1665 C          17.5403   70.7545   32.4549 C.2     136      M_A    0.0000
   1666 N          16.7653   71.2156   32.1451 N.3     136      M_A    0.0000
   1667 O          17.4898   70.2924   33.1661 O.2     136      M_A    0.0000
   1668 H          19.7367   71.0556   33.5870 H       136      M_A    0.0000
   1669 H          20.5343   70.4849   32.1360 H       136      M_A    0.0000
   1670 H          18.2482   70.5393   31.1740 H       136      M_A    0.0000
   1671 H          16.8581   71.7931   31.7543 H       136      M_A    0.0000
   1672 H          16.2199   71.2240   32.5857 H       136      M_A    0.0000
   1673 C          18.6244   71.9228   31.6670 C.3     137      M_A    0.0000
   1674 C          19.6615   72.1342   31.5787 C.3     137      M_A    0.0000
   1675 C          19.9547   72.1454   30.5520 C.2     137      M_A    0.0000
   1676 N          20.8641   72.3758   30.3821 N.3     137      M_A    0.0000
   1677 O          19.4484   71.9504   29.8981 O.2     137      M_A    0.0000
   1678 H          18.2341   72.1554   31.0596 H       137      M_A    0.0000
   1679 H          18.3319   72.2993   32.2586 H       137      M_A    0.0000
   1680 H          20.0737   71.5947   31.9198 H       137      M_A    0.0000
   1681 H          21.1917   72.7926   30.8445 H       137      M_A    0.0000
   1682 H          21.0340   72.4675   29.7080 H       137      M_A    0.0000
   1683 C          19.9305   73.0982   32.0528 C.3     138      M_A    0.0000
   1684 C          20.8490   73.0594   32.5848 C.3     138      M_A    0.0000
   1685 C          21.6410   72.7459   31.9408 C.2     138      M_A    0.0000
   1686 N          22.5114   72.7308   32.3298 N.3     138      M_A    0.0000
   1687 O          21.5446   72.4996   31.1334 O.2     138      M_A    0.0000
   1688 H          19.9299   73.6440   31.5261 H       138      M_A    0.0000
   1689 H          19.3620   73.2671   32.5278 H       138      M_A    0.0000
   1690 H          20.8094   72.5518   33.1487 H       138      M_A    0.0000
   1691 H          22.6449   73.1745   32.8590 H       138      M_A    0.0000
   1692 H          23.0408   72.6093   31.8864 H       138      M_A    0.0000
   1693 C          21.1054   74.0349   33.0420 C.3     139      M_A    0.0000
   1694 C          20.3213   74.4362   33.6356 C.3     139      M_A    0.0000
   1695 C          20.4406   74.1483   34.6569 C.2     139      M_A    0.0000
   1696 N          19.8025   74.5080   35.2672 N.3     139      M_A    0.0000
   1697 O          21.0397   73.6208   34.9481 O.2     139      M_A    0.0000
   1698 H          21.7511   73.9648   33.4338 H       139      M_A    0.0000
   1699 H          21.2618   74.5049   32.4659 H       139      M_A    0.0000
   1700 H          19.6489   74.1656   33.4075 H       139      M_A    0.0000
   1701 H          19.5062   75.1263   35.1098 H       139      M_A    0.0000
   1702 H          19.9310   74.3901   35.9464 H       139      M_A    0.0000
   1703 C          20.2696   75.5400   33.5638 C.3     140      M_A    0.0000
   1704 C          19.3662   75.9415   33.9522 C.3     140      M_A    0.0000
   1705 C          18.6185   75.9843   33.1911 C.2     140      M_A    0.0000
   1706 N          17.7591   76.2892   33.4697 N.3     140      M_A    0.0000
   1707 O          18.7422   75.7867   32.3741 O.2     140      M_A    0.0000
   1708 H          20.8808   75.8406   33.8976 H       140      M_A    0.0000
   1709 H          20.3324   75.7080   32.8255 H       140      M_A    0.0000
   1710 H          19.4736   76.6530   34.1960 H       140      M_A    0.0000
   1711 H          17.5717   76.1835   34.1394 H       140      M_A    0.0000
   1712 H          17.2479   76.2355   32.9928 H       140      M_A    0.0000
   1713 C          18.9880   75.3559   34.8127 C.3     141      M_A    0.0000
   1714 C          18.6110   75.9641   35.5976 C.3     141      M_A    0.0000
   1715 C          18.2316   75.3582   36.3908 C.2     141      M_A    0.0000
   1716 N          17.9169   75.8281   37.1584 N.3     141      M_A    0.0000
   1717 O          18.1779   74.5104   36.3741 O.2     141      M_A    0.0000
   1718 H          18.4724   74.8566   34.5673 H       141      M_A    0.0000
   1719 H          19.5746   74.9429   35.0627 H       141      M_A    0.0000
   1720 H          18.0330   76.3907   35.3503 H       141      M_A    0.0000
   1721 H          18.2010   76.4554   37.3018 H       141      M_A    0.0000
   1722 H          17.7491   75.4304   37.7110 H       141      M_A    0.0000
   1723 C          19.3804   76.6555   35.9930 C.3     142      M_A    0.0000
   1724 C          18.9855   77.3812   36.6606 C.2     142      M_A    0.0000
   1725 C          19.0260   77.0251   37.6664 C.2     142      M_A    0.0000
   1726 N          18.7338   77.6377   38.3361 N.3     142      M_A    0.0000
   1727 O          19.2780   76.2477   37.8988 O.2     142      M_A    0.0000
   1728 H          19.9392   76.2521   36.3098 H       142      M_A    0.0000
   1729 H          19.6883   76.9984   35.3889 H       142      M_A    0.0000
   1730 H          18.2545   77.5175   36.5043 H       142      M_A    0.0000
   1731 H          18.7972   78.3259   38.2052 H       142      M_A    0.0000
   1732 H          18.8410   77.4373   38.9994 H       142      M_A    0.0000
   1733 C          18.7434   75.9370   20.8012 C.2     143      M_A    0.0000
   1734 C          18.5549   76.8189   19.5586 C.3     143      M_A    0.0000
   1735 C          17.7524   77.5246   19.7077 C.2     143      M_A    0.0000
   1736 N          17.6650   78.2093   19.0355 N.3     143      M_A    0.0000
   1737 O          17.1927   77.5042   20.3585 O.2     143      M_A    0.0000
   1738 H          19.0797   76.5165   21.6692 H       143      M_A    0.0000
   1739 H          19.5273   75.1902   20.6166 H       143      M_A    0.0000
   1740 H          18.4043   76.4452   18.9050 H       143      M_A    0.0000
   1741 H          18.2491   78.4069   18.6818 H       143      M_A    0.0000
   1742 H          17.1967   78.7217   19.1775 H       143      M_A    0.0000
   1743 C          19.5172   77.3702   19.4083 C.3     144      M_A    0.0000
   1744 C          20.3739   76.7239   19.3845 C.3     144      M_A    0.0000
   1745 C          20.6317   76.4757   18.3666 C.2     144      M_A    0.0000
   1746 N          21.4219   75.9362   18.2533 N.3     144      M_A    0.0000
   1747 O          20.1806   76.7068   17.6735 O.2     144      M_A    0.0000
   1748 H          19.4648   77.8011   18.7766 H       144      M_A    0.0000
   1749 H          19.5760   77.8628   19.9943 H       144      M_A    0.0000
   1750 H          20.2224   76.0623   19.7436 H       144      M_A    0.0000
   1751 H          21.9317   75.9823   18.7465 H       144      M_A    0.0000
   1752 H          21.6400   75.8468   17.5851 H       144      M_A    0.0000
   1753 C          21.2583   77.1809   19.8957 C.3     145      M_A    0.0000
   1754 C          22.1003   76.5178   19.9543 C.3     145      M_A    0.0000
   1755 C          22.2252   75.9827   19.0257 C.2     145      M_A    0.0000
   1756 N          22.9907   75.3996   18.9768 N.3     145      M_A    0.0000
   1757 O          21.6916   76.0289   18.3546 O.2     145      M_A    0.0000
   1758 H          21.4362   77.8412   19.5493 H       145      M_A    0.0000
   1759 H          21.0237   77.3706   20.6017 H       145      M_A    0.0000
   1760 H          21.9908   75.9909   20.5020 H       145      M_A    0.0000
   1761 H          23.5592   75.5606   19.3719 H       145      M_A    0.0000
   1762 H          23.1216   75.1168   18.3405 H       145      M_A    0.0000
   1763 C          23.0457   77.0616   20.2050 C.3     146      M_A    0.0000
   1764 C          23.9155   76.4338   20.1679 C.3     146      M_A    0.0000
   1765 C          24.8054   77.0288   20.0326 C.2     146      M_A    0.0000
   1766 N          25.6386   76.5450   20.0372 N.3     146      M_A    0.0000
   1767 O          24.8161   77.8781   19.9070 O.2     146      M_A    0.0000
   1768 H          23.1133   77.6734   19.7481 H       146      M_A    0.0000
   1769 H          22.9520   77.3389   20.9148 H       146      M_A    0.0000
   1770 H          23.8758   75.9533   19.5703 H       146      M_A    0.0000
   1771 H          25.6710   75.9385   20.4066 H       146      M_A    0.0000
   1772 H          26.2251   76.9427   20.0363 H       146      M_A    0.0000
   1773 C          24.0193   75.8061   21.0885 C.3     147      M_A    0.0000
   1774 C          24.0237   74.7528   20.8822 C.3     147      M_A    0.0000
   1775 C          24.7129   74.5272   20.0832 C.2     147      M_A    0.0000
   1776 N          24.8140   73.5937   19.8671 N.3     147      M_A    0.0000
   1777 O          25.1499   75.1108   19.6298 O.2     147      M_A    0.0000
   1778 H          24.6442   76.0259   21.4743 H       147      M_A    0.0000
   1779 H          23.4222   75.9834   21.5375 H       147      M_A    0.0000
   1780 H          23.3296   74.5208   20.6500 H       147      M_A    0.0000
   1781 H          24.7010   73.1172   20.3823 H       147      M_A    0.0000
   1782 H          25.3284   73.4390   19.4050 H       147      M_A    0.0000
   1783 C          24.2868   74.1493   21.7872 C.3     148      M_A    0.0000
   1784 C          24.9783   74.6475   22.4397 C.3     148      M_A    0.0000
   1785 C          25.1465   74.0618   23.3301 C.2     148      M_A    0.0000
   1786 N          25.7943   74.4158   23.9493 N.3     148      M_A    0.0000
   1787 O          24.7387   73.3316   23.5241 O.2     148      M_A    0.0000
   1788 H          23.6432   73.9471   22.1512 H       148      M_A    0.0000
   1789 H          24.5951   73.4960   21.5272 H       148      M_A    0.0000
   1790 H          24.6942   75.3234   22.6679 H       148      M_A    0.0000
   1791 H          26.3152   74.8247   23.6908 H       148      M_A    0.0000
   1792 H          25.9686   73.9906   24.4886 H       148      M_A    0.0000
   1793 C          25.9557   74.8546   21.9356 C.3     149      M_A    0.0000
   1794 C          26.7816   74.8992   22.6198 C.3     149      M_A    0.0000
   1795 C          26.5449   74.3746   23.5325 C.2     149      M_A    0.0000
   1796 N          27.2531   74.3249   24.1838 N.3     149      M_A    0.0000
   1797 O          25.7827   74.0248   23.7164 O.2     149      M_A    0.0000
   1798 H          26.0688   74.3363   21.3823 H       149      M_A    0.0000
   1799 H          25.8741   75.5291   21.5780 H       149      M_A    0.0000
   1800 H          26.9319   75.6268   22.8136 H       149      M_A    0.0000
   1801 H          27.9242   74.3439   23.9501 H       149      M_A    0.0000
   1802 H          27.1280   73.9079   24.7429 H       149      M_A    0.0000
   1803 C          27.7177   74.4769   22.1752 C.3     150      M_A    0.0000
   1804 C          28.4699   74.2558   22.9083 C.2     150      M_A    0.0000
   1805 C          28.3737   73.2379   23.2532 C.2     150      M_A    0.0000
   1806 N          29.0431   72.9419   23.8797 N.3     150      M_A    0.0000
   1807 O          27.7468   72.6974   23.0250 O.2     150      M_A    0.0000
   1808 H          27.5409   73.8634   21.7511 H       150      M_A    0.0000
   1809 H          27.9784   75.0048   21.6824 H       150      M_A    0.0000
   1810 H          28.3880   74.7081   23.5234 H       150      M_A    0.0000
   1811 H          29.6844   73.2476   23.8530 H       150      M_A    0.0000
   1812 H          29.0319   72.2514   24.0383 H       150      M_A    0.0000
   1813 C          55.5980   62.2906   37.1252 C.2     151      M_A    0.0000
   1814 C          56.9753   62.8920   36.4705 C.3     151      M_A    0.0000
   1815 C          56.8542   64.5230   36.2694 C.2     151      M_A    0.0000
   1816 N          58.0574   65.1968   35.7563 N.3     151      M_A    0.0000
   1817 O          55.7769   65.2326   36.5048 O.2     151      M_A    0.0000
   1818 H          55.5770   62.4106   38.2895 H       151      M_A    0.0000
   1819 H          55.5263   61.1384   36.9202 H       151      M_A    0.0000
   1820 H          57.1615   62.4311   35.4085 H       151      M_A    0.0000
   1821 H          59.0231   64.7483   35.9680 H       151      M_A    0.0000
   1822 H          58.0236   66.2784   35.7506 H       151      M_A    0.0000
   1823 C          58.3478   62.5313   37.4228 C.3     152      M_A    0.0000
   1824 C          58.4388   60.9508   37.8481 C.3     152      M_A    0.0000
   1825 C          58.0408   59.9863   36.5727 C.2     152      M_A    0.0000
   1826 N          58.1554   58.5377   36.8041 N.3     152      M_A    0.0000
   1827 O          57.6151   60.4148   35.4089 O.2     152      M_A    0.0000
   1828 H          59.3105   62.8908   36.8623 H       152      M_A    0.0000
   1829 H          58.2663   63.2007   38.3820 H       152      M_A    0.0000
   1830 H          57.6769   60.7111   38.7067 H       152      M_A    0.0000
   1831 H          58.8780   58.1935   37.5375 H       152      M_A    0.0000
   1832 H          58.0241   57.9109   35.9318 H       152      M_A    0.0000
   1833 C          59.9924   60.5306   38.4229 C.3     153      M_A    0.0000
   1834 C          60.1859   58.9166   38.6339 C.3     153      M_A    0.0000
   1835 C          59.3803   58.0811   37.4641 C.2     153      M_A    0.0000
   1836 N          59.5362   56.6184   37.4984 N.3     153      M_A    0.0000
   1837 O          58.6106   58.6196   36.5492 O.2     153      M_A    0.0000
   1838 H          60.8023   60.9795   37.7066 H       153      M_A    0.0000
   1839 H          60.1250   61.0877   39.4461 H       153      M_A    0.0000
   1840 H          59.7368   58.5794   39.6633 H       153      M_A    0.0000
   1841 H          60.4498   56.2121   37.9210 H       153      M_A    0.0000
   1842 H          59.1192   56.0818   36.6562 H       153      M_A    0.0000
   1843 C          61.8337   58.4633   38.6317 C.3     154      M_A    0.0000
   1844 C          62.1579   57.2201   37.6137 C.3     154      M_A    0.0000
   1845 C          60.8967   56.9753   36.5818 C.2     154      M_A    0.0000
   1846 N          61.0940   55.9307   35.5645 N.3     154      M_A    0.0000
   1847 O          59.7527   57.6147   36.6263 O.2     154      M_A    0.0000
   1848 H          62.4913   59.4035   38.3992 H       154      M_A    0.0000
   1849 H          62.0907   58.1568   39.7339 H       154      M_A    0.0000
   1850 H          62.3042   56.2237   38.2145 H       154      M_A    0.0000
   1851 H          62.1080   55.7207   35.2385 H       154      M_A    0.0000
   1852 H          60.3244   55.8615   34.8070 H       154      M_A    0.0000
   1853 C          63.5898   57.4821   36.7183 C.3     155      M_A    0.0000
   1854 C          63.3769   57.3180   35.1013 C.3     155      M_A    0.0000
   1855 C          61.9660   58.0272   34.6302 C.2     155      M_A    0.0000
   1856 N          61.6932   58.0137   33.1844 N.3     155      M_A    0.0000
   1857 O          61.0852   58.5623   35.4409 O.2     155      M_A    0.0000
   1858 H          64.0329   58.5288   36.9985 H       155      M_A    0.0000
   1859 H          64.3660   56.6918   37.1029 H       155      M_A    0.0000
   1860 H          63.3023   56.1849   34.8089 H       155      M_A    0.0000
   1861 H          62.5398   57.9905   32.5053 H       155      M_A    0.0000
   1862 H          60.8379   58.5932   32.8625 H       155      M_A    0.0000
   1863 C          64.6776   57.9818   34.2134 C.3     156      M_A    0.0000
   1864 C          64.1942   59.0313   33.0508 C.3     156      M_A    0.0000
   1865 C          63.5046   60.3657   33.7287 C.2     156      M_A    0.0000
   1866 N          63.0937   61.4219   32.7902 N.3     156      M_A    0.0000
   1867 O          63.2810   60.5286   35.0104 O.2     156      M_A    0.0000
   1868 H          65.4407   58.4697   34.9551 H       156      M_A    0.0000
   1869 H          65.2388   57.0746   33.7267 H       156      M_A    0.0000
   1870 H          63.3804   58.5393   32.3647 H       156      M_A    0.0000
   1871 H          63.6331   61.5093   31.8521 H       156      M_A    0.0000
   1872 H          62.7655   62.3491   33.2412 H       156      M_A    0.0000
   1873 C          65.4865   59.5048   32.0377 C.3     157      M_A    0.0000
   1874 C          66.6319   60.3776   32.8209 C.3     157      M_A    0.0000
   1875 C          67.7740   60.9136   31.7609 C.2     157      M_A    0.0000
   1876 N          68.8224   61.7754   32.3295 N.3     157      M_A    0.0000
   1877 O          67.8212   60.6075   30.4867 O.2     157      M_A    0.0000
   1878 H          65.9361   58.5567   31.5188 H       157      M_A    0.0000
   1879 H          65.0115   60.1458   31.1785 H       157      M_A    0.0000
   1880 H          67.1869   59.7128   33.6115 H       157      M_A    0.0000
   1881 H          68.5766   62.3683   33.2051 H       157      M_A    0.0000
   1882 H          69.4923   62.2342   31.6143 H       157      M_A    0.0000
   1883 C          65.9613   61.7054   33.6624 C.3     158      M_A    0.0000
   1884 C          67.0954   62.6998   34.3043 C.3     158      M_A    0.0000
   1885 C          67.9311   63.4686   33.1102 C.2     158      M_A    0.0000
   1886 N          68.9325   64.4494   33.5577 N.3     158      M_A    0.0000
   1887 O          67.7834   63.2481   31.8260 O.2     158      M_A    0.0000
   1888 H          65.2258   62.2782   32.9544 H       158      M_A    0.0000
   1889 H          65.2971   61.2512   34.5153 H       158      M_A    0.0000
   1890 H          67.8775   62.0853   34.9254 H       158      M_A    0.0000
   1891 H          68.7718   64.9447   34.5103 H       158      M_A    0.0000
   1892 H          69.3846   65.0482   32.7779 H       158      M_A    0.0000
   1893 C          66.4101   63.8551   35.3609 C.3     159      M_A    0.0000
   1894 C          66.9221   65.3835   35.0628 C.3     159      M_A    0.0000
   1895 C          67.0290   65.6501   33.4402 C.2     159      M_A    0.0000
   1896 N          67.4084   67.0137   33.0381 N.3     159      M_A    0.0000
   1897 O          66.8299   64.7438   32.5137 O.2     159      M_A    0.0000
   1898 H          65.2434   63.7679   35.3222 H       159      M_A    0.0000
   1899 H          66.7200   63.5325   36.4447 H       159      M_A    0.0000
   1900 H          67.9943   65.5523   35.5067 H       159      M_A    0.0000
   1901 H          67.1544   67.8319   33.7050 H       159      M_A    0.0000
   1902 H          67.3488   67.2246   31.9784 H       159      M_A    0.0000
   1903 C          65.8954   66.5523   35.7703 C.3     160      M_A    0.0000
   1904 C          65.0020   67.3750   34.6694 C.3     160      M_A    0.0000
   1905 C          65.7007   67.2897   33.1795 C.2     160      M_A    0.0000
   1906 N          64.9545   67.9285   32.0839 N.3     160      M_A    0.0000
   1907 O          66.8578   66.7293   32.9217 O.2     160      M_A    0.0000
   1908 H          65.2265   66.0369   36.5811 H       160      M_A    0.0000
   1909 H          66.5938   67.2919   36.3535 H       160      M_A    0.0000
   1910 H          64.9435   68.5113   34.9532 H       160      M_A    0.0000
   1911 H          63.8744   67.9934   32.1717 H       160      M_A    0.0000
   1912 H          65.3439   67.7582   31.0887 H       160      M_A    0.0000
   1913 C          63.3967   66.7948   34.5848 C.3     161      M_A    0.0000
   1914 C          62.3387   67.9091   34.0140 C.2     161      M_A    0.0000
   1915 C          62.1985   67.7860   32.3767 C.2     161      M_A    0.0000
   1916 N          61.2188   68.6858   31.7477 N.3     161      M_A    0.0000
   1917 O          62.9032   66.9803   31.6194 O.2     161      M_A    0.0000
   1918 H          63.3767   65.8080   33.9553 H       161      M_A    0.0000
   1919 H          63.1024   66.4846   35.6767 H       161      M_A    0.0000
   1920 H          62.7207   68.9940   34.2421 H       161      M_A    0.0000
   1921 H          60.3689   69.0095   32.3404 H       161      M_A    0.0000
   1922 H          61.0305   68.5136   30.6961 H       161      M_A    0.0000
   1923 C          52.0301   80.5207   29.9382 C.2     162      M_A    0.0000
   1924 C          52.5485   80.2347   28.5215 C.3     162      M_A    0.0000
   1925 C          52.0972   78.8349   28.0532 C.2     162      M_A    0.0000
   1926 N          52.4450   78.4918   26.7645 N.3     162      M_A    0.0000
   1927 O          51.4884   78.0225   28.7445 O.2     162      M_A    0.0000
   1928 H          52.7454   81.1075   30.5268 H       162      M_A    0.0000
   1929 H          51.8925   79.5783   30.4853 H       162      M_A    0.0000
   1930 H          53.6467   80.2375   28.5050 H       162      M_A    0.0000
   1931 H          52.5620   79.2397   26.0856 H       162      M_A    0.0000
   1932 H          52.0435   77.6290   26.4155 H       162      M_A    0.0000
   1933 C          52.0589   81.3375   27.4696 C.3     163      M_A    0.0000
   1934 C          53.0732   82.4728   27.2703 C.3     163      M_A    0.0000
   1935 C          53.4773   83.0814   28.6300 C.2     163      M_A    0.0000
   1936 N          54.4393   84.0673   28.5845 N.3     163      M_A    0.0000
   1937 O          52.9916   82.7697   29.7142 O.2     163      M_A    0.0000
   1938 H          51.8024   80.8451   26.5240 H       163      M_A    0.0000
   1939 H          51.1164   81.7407   27.8637 H       163      M_A    0.0000
   1940 H          52.6316   83.2845   26.6765 H       163      M_A    0.0000
   1941 H          55.1091   84.0469   27.8196 H       163      M_A    0.0000
   1942 H          54.7939   84.3776   29.4820 H       163      M_A    0.0000
   1943 C          54.3819   81.9784   26.4922 C.3     164      M_A    0.0000
   1944 C          55.6468   82.7544   26.8862 C.3     164      M_A    0.0000
   1945 C          55.2893   84.1993   27.2946 C.2     164      M_A    0.0000
   1946 N          56.3388   84.9755   27.7368 N.3     164      M_A    0.0000
   1947 O          54.1669   84.6935   27.2280 O.2     164      M_A    0.0000
   1948 H          54.5008   80.8981   26.6369 H       164      M_A    0.0000
   1949 H          54.1739   82.1172   25.4227 H       164      M_A    0.0000
   1950 H          56.3365   82.8254   26.0344 H       164      M_A    0.0000
   1951 H          57.1298   84.5073   28.1717 H       164      M_A    0.0000
   1952 H          56.0864   85.8787   28.1214 H       164      M_A    0.0000
   1953 C          56.4421   82.0399   28.0777 C.3     165      M_A    0.0000
   1954 C          57.9119   81.7560   27.7364 C.3     165      M_A    0.0000
   1955 C          58.5107   82.9186   26.9165 C.2     165      M_A    0.0000
   1956 N          59.8497   82.8093   26.6088 N.3     165      M_A    0.0000
   1957 O          57.8819   83.8929   26.5115 O.2     165      M_A    0.0000
   1958 H          56.3406   82.6401   28.9898 H       165      M_A    0.0000
   1959 H          55.9141   81.0979   28.2777 H       165      M_A    0.0000
   1960 H          57.9963   80.8528   27.1172 H       165      M_A    0.0000
   1961 H          60.4431   82.2757   27.2390 H       165      M_A    0.0000
   1962 H          60.2709   83.6262   26.1814 H       165      M_A    0.0000
   1963 C          58.7961   81.5119   29.0483 C.3     166      M_A    0.0000
   1964 C          59.0690   80.2442   29.2129 C.3     166      M_A    0.0000
   1965 C          59.4490   80.0121   30.4491 C.2     166      M_A    0.0000
   1966 N          59.6611   78.8896   30.7164 N.3     166      M_A    0.0000
   1967 O          59.5909   80.7451   31.1810 O.2     166      M_A    0.0000
   1968 H          59.5351   82.0544   29.2242 H       166      M_A    0.0000
   1969 H          58.1341   81.7776   29.6527 H       166      M_A    0.0000
   1970 H          59.7764   79.9862   28.6586 H       166      M_A    0.0000
   1971 H          59.2368   78.2785   30.2738 H       166      M_A    0.0000
   1972 H          59.8063   78.7244   31.5508 H       166      M_A    0.0000
   1973 C          58.0066   79.4488   28.9034 C.3     167      M_A    0.0000
   1974 C          58.0050   78.3172   29.5576 C.3     167      M_A    0.0000
   1975 C          57.4922   78.4795   30.7564 C.2     167      M_A    0.0000
   1976 N          57.3908   77.5071   31.4050 N.3     167      M_A    0.0000
   1977 O          57.1979   79.3962   31.1642 O.2     167      M_A    0.0000
   1978 H          57.2163   79.9284   29.0323 H       167      M_A    0.0000
   1979 H          58.0605   79.2868   27.9842 H       167      M_A    0.0000
   1980 H          58.8785   78.0055   29.6762 H       167      M_A    0.0000
   1981 H          57.2947   76.7516   30.9936 H       167      M_A    0.0000
   1982 H          56.9585   77.5950   32.1465 H       167      M_A    0.0000
   1983 C          57.3190   77.3447   28.8939 C.3     168      M_A    0.0000
   1984 C          57.5078   76.1516   29.3933 C.3     168      M_A    0.0000
   1985 C          56.5480   75.8492   30.2381 C.2     168      M_A    0.0000
   1986 N          56.5933   74.7711   30.6988 N.3     168      M_A    0.0000
   1987 O          55.7821   76.4969   30.5332 O.2     168      M_A    0.0000
   1988 H          56.4142   77.5725   28.8650 H       168      M_A    0.0000
   1989 H          57.6179   77.3718   28.0085 H       168      M_A    0.0000
   1990 H          58.3105   76.1194   29.8717 H       168      M_A    0.0000
   1991 H          56.9726   74.1461   30.2354 H       168      M_A    0.0000
   1992 H          55.9089   74.5355   31.1685 H       168      M_A    0.0000
   1993 C          57.5810   75.1976   28.4229 C.3     169      M_A    0.0000
   1994 C          56.5357   74.4134   28.3943 C.3     169      M_A    0.0000
   1995 C          55.4584   75.0691   28.7632 C.2     169      M_A    0.0000
   1996 N          54.4522   74.4677   28.7146 N.3     169      M_A    0.0000
   1997 O          55.4451   76.0563   29.1075 O.2     169      M_A    0.0000
   1998 H          57.7324   75.6089   27.5988 H       169      M_A    0.0000
   1999 H          58.3504   74.6984   28.6048 H       169      M_A    0.0000
   2000 H          56.6407   73.7045   28.9948 H       169      M_A    0.0000
   2001 H          54.3895   73.8250   28.1381 H       169      M_A    0.0000
   2002 H          53.7347   74.9264   28.8536 H       169      M_A    0.0000
   2003 C          56.3399   73.8682   27.1608 C.3     170      M_A    0.0000
   2004 C          55.5958   72.7939   27.1867 C.3     170      M_A    0.0000
   2005 C          54.5112   72.9680   26.4658 C.2     170      M_A    0.0000
   2006 N          53.8024   72.0374   26.3758 N.3     170      M_A    0.0000
   2007 O          54.2377   73.8630   25.9995 O.2     170      M_A    0.0000
   2008 H          55.9939   74.5196   26.5887 H       170      M_A    0.0000
   2009 H          57.1890   73.6613   26.8288 H       170      M_A    0.0000
   2010 H          55.3149   72.6103   28.0594 H       170      M_A    0.0000
   2011 H          54.1547   71.2495   26.4413 H       170      M_A    0.0000
   2012 H          53.1483   72.1174   25.8188 H       170      M_A    0.0000
   2013 C          56.2692   71.6955   26.7429 C.3     171      M_A    0.0000
   2014 C          55.7967   71.2230   25.6196 C.3     171      M_A    0.0000
   2015 C          54.5904   70.7335   25.7976 C.2     171      M_A    0.0000
   2016 N          54.0524   70.3364   24.8335 N.3     171      M_A    0.0000
   2017 O          54.1033   70.6581   26.7197 O.2     171      M_A    0.0000
   2018 H          57.1787   71.8966   26.6827 H       171      M_A    0.0000
   2019 H          56.1936   71.0525   27.4173 H       171      M_A    0.0000
   2020 H          56.3308   70.5216   25.3081 H       171      M_A    0.0000
   2021 H          54.2662   70.6903   24.0730 H       171      M_A    0.0000
   2022 H          53.2244   70.1144   24.9313 H       171      M_A    0.0000
   2023 C          55.7667   72.1696   24.6398 C.3     172      M_A    0.0000
   2024 C          56.9203   72.7564   24.4575 C.3     172      M_A    0.0000
   2025 C          57.8240   71.8844   24.0710 C.2     172      M_A    0.0000
   2026 N          58.8837   72.3224   23.8226 N.3     172      M_A    0.0000
   2027 O          57.6689   70.8533   23.9942 O.2     172      M_A    0.0000
   2028 H          55.4408   71.7870   23.8532 H       172      M_A    0.0000
   2029 H          55.1263   72.7979   24.9030 H       172      M_A    0.0000
   2030 H          57.2284   73.1299   25.2573 H       172      M_A    0.0000
   2031 H          58.9315   73.1425   23.5498 H       172      M_A    0.0000
   2032 H          59.4438   71.7697   23.4686 H       172      M_A    0.0000
   2033 C          56.8409   73.7674   23.5473 C.3     173      M_A    0.0000
   2034 C          57.2283   74.9204   24.0258 C.3     173      M_A    0.0000
   2035 C          57.8848   75.6002   23.1129 C.2     173      M_A    0.0000
   2036 N          58.2259   76.6785   23.4253 N.3     173      M_A    0.0000
   2037 O          58.1338   75.2432   22.1622 O.2     173      M_A    0.0000
   2038 H          57.3176   73.5287   22.7810 H       173      M_A    0.0000
   2039 H          55.9443   73.8143   23.2864 H       173      M_A    0.0000
   2040 H          57.8129   74.7974   24.7450 H       173      M_A    0.0000
   2041 H          57.7572   77.0971   24.0206 H       173      M_A    0.0000
   2042 H          58.5612   77.1625   22.7946 H       173      M_A    0.0000
   2043 C          56.1803   75.6617   24.4831 C.3     174      M_A    0.0000
   2044 C          55.5344   76.2801   23.5298 C.3     174      M_A    0.0000
   2045 C          55.9834   75.9070   22.3527 C.2     174      M_A    0.0000
   2046 N          55.4270   76.3622   21.4255 N.3     174      M_A    0.0000
   2047 O          56.7946   75.2664   22.1952 O.2     174      M_A    0.0000
   2048 H          55.6174   75.1170   24.9907 H       174      M_A    0.0000
   2049 H          56.5413   76.2837   25.0806 H       174      M_A    0.0000
   2050 H          55.6660   77.2039   23.5900 H       174      M_A    0.0000
   2051 H          54.5960   76.5859   21.5190 H       174      M_A    0.0000
   2052 H          55.6503   76.0372   20.6581 H       174      M_A    0.0000
   2053 C          54.1911   76.0614   23.5979 C.3     175      M_A    0.0000
   2054 C          53.8666   74.8060   23.4333 C.3     175      M_A    0.0000
   2055 C          54.9346   74.0430   23.4934 C.2     175      M_A    0.0000
   2056 N          54.7429   72.8881   23.4160 N.3     175      M_A    0.0000
   2057 O          55.9167   74.3910   23.5813 O.2     175      M_A    0.0000
   2058 H          53.8645   76.4045   24.4022 H       175      M_A    0.0000
   2059 H          53.8070   76.5821   22.9230 H       175      M_A    0.0000
   2060 H          53.4856   74.6734   22.5898 H       175      M_A    0.0000
   2061 H          53.9794   72.5832   23.6869 H       175      M_A    0.0000
   2062 H          55.4280   72.3842   23.5616 H       175      M_A    0.0000
   2063 C          52.9539   74.3893   24.3555 C.3     176      M_A    0.0000
   2064 C          51.7183   74.5164   23.9484 C.3     176      M_A    0.0000
   2065 C          50.8891   73.9996   24.8269 C.2     176      M_A    0.0000
   2066 N          49.7475   74.1158   24.5822 N.3     176      M_A    0.0000
   2067 O          51.1743   73.4879   25.6929 O.2     176      M_A    0.0000
   2068 H          53.1506   73.5124   24.6076 H       176      M_A    0.0000
   2069 H          53.0949   74.9123   25.1175 H       176      M_A    0.0000
   2070 H          51.5876   74.0531   23.1468 H       176      M_A    0.0000
   2071 H          49.5008   74.7930   24.1028 H       176      M_A    0.0000
   2072 H          49.2040   73.8728   25.2068 H       176      M_A    0.0000
   2073 C          51.3880   75.8182   23.7176 C.3     177      M_A    0.0000
   2074 C          50.5816   76.3109   24.6205 C.3     177      M_A    0.0000
   2075 C          51.2620   76.9487   25.5461 C.2     177      M_A    0.0000
   2076 N          50.6238   77.4804   26.3746 N.3     177      M_A    0.0000
   2077 O          52.3052   76.9925   25.6011 O.2     177      M_A    0.0000
   2078 H          52.1688   76.3227   23.6333 H       177      M_A    0.0000
   2079 H          50.9783   75.8387   22.8774 H       177      M_A    0.0000
   2080 H          50.1137   75.6257   25.0516 H       177      M_A    0.0000
   2081 H          49.8260   77.7445   26.1670 H       177      M_A    0.0000
   2082 H          51.0630   77.9856   26.9190 H       177      M_A    0.0000
   2083 C          49.6547   77.1479   24.0752 C.3     178      M_A    0.0000
   2084 C          48.5035   77.1112   24.6931 C.3     178      M_A    0.0000
   2085 C          48.6576   77.3825   25.9695 C.2     178      M_A    0.0000
   2086 N          47.6719   77.4331   26.6040 N.3     178      M_A    0.0000
   2087 O          49.5769   77.5301   26.4450 O.2     178      M_A    0.0000
   2088 H          50.0050   78.0124   24.0395 H       178      M_A    0.0000
   2089 H          49.5494   76.8777   23.1864 H       178      M_A    0.0000
   2090 H          48.1301   76.2555   24.6408 H       178      M_A    0.0000
   2091 H          46.9394   77.6572   26.2009 H       178      M_A    0.0000
   2092 H          47.7625   77.7146   27.4146 H       178      M_A    0.0000
   2093 C          47.6028   77.9756   24.1468 C.3     179      M_A    0.0000
   2094 C          46.4453   77.4217   23.8983 C.3     179      M_A    0.0000
   2095 C          46.5676   76.4945   22.9753 C.2     179      M_A    0.0000
   2096 N          45.5921   75.8941   22.7215 N.3     179      M_A    0.0000
   2097 O          47.4477   76.2797   22.4534 O.2     179      M_A    0.0000
   2098 H          47.5212   78.7236   24.6992 H       179      M_A    0.0000
   2099 H          47.9864   78.2851   23.3523 H       179      M_A    0.0000
   2100 H          45.8424   78.0554   23.5681 H       179      M_A    0.0000
   2101 H          44.9934   75.8096   23.3409 H       179      M_A    0.0000
   2102 H          45.6949   75.2177   22.1958 H       179      M_A    0.0000
   2103 C          45.8865   76.8821   25.0180 C.3     180      M_A    0.0000
   2104 C          45.4255   75.6736   24.8302 C.2     180      M_A    0.0000
   2105 C          46.3487   74.7807   25.1077 C.2     180      M_A    0.0000
   2106 N          46.0153   73.6587   25.0274 N.3     180      M_A    0.0000
   2107 O          47.3376   75.0004   25.3665 O.2     180      M_A    0.0000
   2108 H          46.5048   76.9160   25.7165 H       180      M_A    0.0000
   2109 H          45.1903   77.4553   25.2647 H       180      M_A    0.0000
   2110 H          45.1877   75.5486   23.9346 H       180      M_A    0.0000
   2111 H          45.1807   73.4716   25.1603 H       180      M_A    0.0000
   2112 H          46.5862   73.0772   25.3110 H       180      M_A    0.0000
   2113 C          77.8090   59.0333   32.2241 C.2     181      M_A    0.0000
   2114 C          78.0887   58.0503   32.3507 C.3     181      M_A    0.0000
   2115 C          79.1200   57.9612   32.3301 C.2     181      M_A    0.0000
   2116 N          79.4542   57.1131   32.4839 N.3     181      M_A    0.0000
   2117 O          79.6448   58.5766   32.1729 O.2     181      M_A    0.0000
   2118 H          77.6196   59.3501   32.8602 H       181      M_A    0.0000
   2119 H          77.2121   59.0721   31.7940 H       181      M_A    0.0000
   2120 H          77.8272   57.6342   31.8018 H       181      M_A    0.0000
   2121 H          79.0841   56.6870   32.8668 H       181      M_A    0.0000
   2122 H          80.1292   57.0701   32.5535 H       181      M_A    0.0000
   2123 C          77.7094   57.6389   33.2672 C.3     182      M_A    0.0000
   2124 C          76.8122   57.1472   33.1489 C.3     182      M_A    0.0000
   2125 C          76.9688   56.1874   32.7936 C.2     182      M_A    0.0000
   2126 N          76.2131   55.6626   32.7042 N.3     182      M_A    0.0000
   2127 O          77.7004   55.8773   32.5758 O.2     182      M_A    0.0000
   2128 H          78.2226   57.2071   33.5691 H       182      M_A    0.0000
   2129 H          77.6266   58.2067   33.7291 H       182      M_A    0.0000
   2130 H          76.3914   57.4928   32.6527 H       182      M_A    0.0000
   2131 H          75.6832   55.7908   33.1142 H       182      M_A    0.0000
   2132 H          76.3238   55.0093   32.5520 H       182      M_A    0.0000
   2133 C          76.2522   57.1060   34.0642 C.3     183      M_A    0.0000
   2134 C          75.5050   56.3974   34.0496 C.3     183      M_A    0.0000
   2135 C          75.3510   56.0133   34.9986 C.2     183      M_A    0.0000
   2136 N          74.6619   55.4023   35.0790 N.3     183      M_A    0.0000
   2137 O          75.8014   56.1994   35.6629 O.2     183      M_A    0.0000
   2138 H          76.7153   57.0067   34.6269 H       183      M_A    0.0000
   2139 H          75.9618   57.7765   34.1582 H       183      M_A    0.0000
   2140 H          75.6941   55.8311   33.6179 H       183      M_A    0.0000
   2141 H          74.1400   55.4482   34.6423 H       183      M_A    0.0000
   2142 H          74.5068   55.2143   35.7137 H       183      M_A    0.0000
   2143 C          74.5830   56.7925   33.6664 C.3     184      M_A    0.0000
   2144 C          74.2163   56.2590   32.8654 C.3     184      M_A    0.0000
   2145 C          73.5772   55.5117   33.1897 C.2     184      M_A    0.0000
   2146 N          73.1681   55.0153   32.5257 N.3     184      M_A    0.0000
   2147 O          73.4282   55.3262   33.9785 O.2     184      M_A    0.0000
   2148 H          74.0939   56.8392   34.2136 H       184      M_A    0.0000
   2149 H          74.7250   57.4863   33.4633 H       184      M_A    0.0000
   2150 H          74.7651   55.9280   32.5021 H       184      M_A    0.0000
   2151 H          73.0636   55.3130   31.9210 H       184      M_A    0.0000
   2152 H          72.6870   54.5828   32.7347 H       184      M_A    0.0000
   2153 C          73.7064   56.8894   32.1615 C.3     185      M_A    0.0000
   2154 C          73.6908   56.5008   31.2079 C.3     185      M_A    0.0000
   2155 C          72.9223   55.8141   31.1087 C.2     185      M_A    0.0000
   2156 N          72.8114   55.4527   30.2650 N.3     185      M_A    0.0000
   2157 O          72.4294   55.5644   31.7198 O.2     185      M_A    0.0000
   2158 H          73.0298   57.0333   32.4115 H       185      M_A    0.0000
   2159 H          74.0638   57.5335   32.1654 H       185      M_A    0.0000
   2160 H          74.3180   56.1417   31.0647 H       185      M_A    0.0000
   2161 H          73.0046   55.8264   29.7281 H       185      M_A    0.0000
   2162 H          72.2576   55.0677   30.1794 H       185      M_A    0.0000
   2163 C          73.5884   57.2670   30.4627 C.3     186      M_A    0.0000
   2164 C          73.5063   56.8930   29.5066 C.3     186      M_A    0.0000
   2165 C          74.1720   57.3693   28.8726 C.2     186      M_A    0.0000
   2166 N          74.1933   57.0573   28.0027 N.3     186      M_A    0.0000
   2167 O          74.6567   58.0011   29.0839 O.2     186      M_A    0.0000
   2168 H          73.0212   57.7010   30.6384 H       186      M_A    0.0000
   2169 H          74.1896   57.6892   30.5174 H       186      M_A    0.0000
   2170 H          72.8311   57.0149   29.2383 H       186      M_A    0.0000
   2171 H          74.0253   56.4056   27.8915 H       186      M_A    0.0000
   2172 H          74.6867   57.3114   27.6100 H       186      M_A    0.0000
   2173 C          73.6726   55.8327   29.4737 C.3     187      M_A    0.0000
   2174 C          74.1076   55.5187   28.5945 C.3     187      M_A    0.0000
   2175 C          74.9481   56.0851   28.3833 C.2     187      M_A    0.0000
   2176 N          75.4241   55.8347   27.6314 N.3     187      M_A    0.0000
   2177 O          75.2019   56.7357   28.8203 O.2     187      M_A    0.0000
   2178 H          74.0645   55.6309   30.0624 H       187      M_A    0.0000
   2179 H          73.0114   55.5180   29.5542 H       187      M_A    0.0000
   2180 H          73.6426   55.6074   28.0299 H       187      M_A    0.0000
   2181 H          75.3973   55.1812   27.4377 H       187      M_A    0.0000
   2182 H          76.0190   56.1509   27.5399 H       187      M_A    0.0000
   2183 C          74.3720   54.4784   28.6254 C.3     188      M_A    0.0000
   2184 C          73.6682   53.8690   28.1849 C.3     188      M_A    0.0000
   2185 C          73.9414   52.8746   28.2767 C.2     188      M_A    0.0000
   2186 N          73.3364   52.2585   27.9462 N.3     188      M_A    0.0000
   2187 O          74.6501   52.6067   28.6003 O.2     188      M_A    0.0000
   2188 H          75.0387   54.3894   28.3279 H       188      M_A    0.0000
   2189 H          74.4445   54.3055   29.3379 H       188      M_A    0.0000
   2190 H          73.6181   54.0112   27.4637 H       188      M_A    0.0000
   2191 H          72.6763   52.4301   27.9374 H       188      M_A    0.0000
   2192 H          73.4755   51.6068   28.0810 H       188      M_A    0.0000
   2193 C          72.6905   54.0148   28.6042 C.3     189      M_A    0.0000
   2194 C          72.4521   53.3193   29.3255 C.3     189      M_A    0.0000
   2195 C          72.9753   52.4399   29.1682 C.2     189      M_A    0.0000
   2196 N          72.8516   51.7786   29.8022 N.3     189      M_A    0.0000
   2197 O          73.4666   52.2907   28.5239 O.2     189      M_A    0.0000
   2198 H          72.6358   54.7034   28.8567 H       189      M_A    0.0000
   2199 H          72.2164   53.9678   28.0424 H       189      M_A    0.0000
   2200 H          71.7356   53.1502   29.2948 H       189      M_A    0.0000
   2201 H          72.6903   51.9691   30.4370 H       189      M_A    0.0000
   2202 H          73.2569   51.2358   29.7454 H       189      M_A    0.0000
   2203 C          72.6484   53.6836   30.3163 C.3     190      M_A    0.0000
   2204 C          73.6002   54.0614   30.4271 C.3     190      M_A    0.0000
   2205 C          73.6557   55.0219   30.0447 C.2     190      M_A    0.0000
   2206 N          74.4684   55.4502   30.1481 N.3     190      M_A    0.0000
   2207 O          73.0451   55.4102   29.6509 O.2     190      M_A    0.0000
   2208 H          72.1335   54.1758   30.4995 H       190      M_A    0.0000
   2209 H          72.5502   53.1111   30.7694 H       190      M_A    0.0000
   2210 H          74.0855   53.6535   30.0517 H       190      M_A    0.0000
   2211 H          74.8598   55.2722   30.6776 H       190      M_A    0.0000
   2212 H          74.4800   56.1072   29.9736 H       190      M_A    0.0000
   2213 C          73.9156   54.0628   31.4534 C.3     191      M_A    0.0000
   2214 C          74.8990   53.7819   31.5747 C.3     191      M_A    0.0000
   2215 C          75.3459   54.3401   32.3234 C.2     191      M_A    0.0000
   2216 N          76.2195   54.1158   32.5263 N.3     191      M_A    0.0000
   2217 O          74.9884   54.9640   32.7256 O.2     191      M_A    0.0000
   2218 H          73.7794   54.7231   31.7474 H       191      M_A    0.0000
   2219 H          73.4733   53.5904   31.8055 H       191      M_A    0.0000
   2220 H          75.2816   53.9068   30.9576 H       191      M_A    0.0000
   2221 H          76.4193   53.4729   32.4165 H       191      M_A    0.0000
   2222 H          76.4841   54.4236   33.0717 H       191      M_A    0.0000
   2223 C          74.9940   52.7361   31.7989 C.3     192      M_A    0.0000
   2224 C          75.6567   52.2483   31.1796 C.3     192      M_A    0.0000
   2225 C          75.9355   51.3398   31.5905 C.2     192      M_A    0.0000
   2226 N          76.4952   50.8178   31.0719 N.3     192      M_A    0.0000
   2227 O          75.7106   51.0687   32.3353 O.2     192      M_A    0.0000
   2228 H          75.1698   52.6558   32.5085 H       192      M_A    0.0000
   2229 H          74.3203   52.4475   31.7243 H       192      M_A    0.0000
   2230 H          76.2729   52.6438   31.0974 H       192      M_A    0.0000
   2231 H          76.4630   50.8886   30.3942 H       192      M_A    0.0000
   2232 H          76.6102   50.1889   31.3031 H       192      M_A    0.0000
   2233 C          75.2494   52.0907   30.1986 C.3     193      M_A    0.0000
   2234 C          75.0541   51.0999   29.9962 C.3     193      M_A    0.0000
   2235 C          75.3526   50.5026   30.7874 C.2     193      M_A    0.0000
   2236 N          75.1685   49.6006   30.7031 N.3     193      M_A    0.0000
   2237 O          75.7473   50.7701   31.4593 O.2     193      M_A    0.0000
   2238 H          74.6526   52.5121   30.1140 H       193      M_A    0.0000
   2239 H          75.7490   52.3511   29.7240 H       193      M_A    0.0000
   2240 H          75.4334   50.8771   29.4052 H       193      M_A    0.0000
   2241 H          74.6339   49.4167   30.3213 H       193      M_A    0.0000
   2242 H          75.2875   49.2222   31.2552 H       193      M_A    0.0000
   2243 C          74.0148   50.9291   29.7874 C.3     194      M_A    0.0000
   2244 C          73.4605   50.7274   30.6316 C.3     194      M_A    0.0000
   2245 C          74.0131   50.9264   31.4842 C.2     194      M_A    0.0000
   2246 N          73.5689   50.8146   32.2873 N.3     194      M_A    0.0000
   2247 O          74.8046   51.1547   31.4922 O.2     194      M_A    0.0000
   2248 H          73.7463   51.5017   29.4117 H       194      M_A    0.0000
   2249 H          73.9891   50.3555   29.3259 H       194      M_A    0.0000
   2250 H          73.2781   50.0140   30.6568 H       194      M_A    0.0000
   2251 H          72.8920   50.8984   32.2938 H       194      M_A    0.0000
   2252 H          73.9029   51.0247   32.8409 H       194      M_A    0.0000
   2253 C          72.5453   51.2884   30.6557 C.3     195      M_A    0.0000
   2254 C          71.7492   50.7813   30.2436 C.3     195      M_A    0.0000
   2255 C          70.8834   50.9688   30.7795 C.2     195      M_A    0.0000
   2256 N          70.1115   50.5857   30.4448 N.3     195      M_A    0.0000
   2257 O          70.8433   51.4102   31.4740 O.2     195      M_A    0.0000
   2258 H          72.4093   51.4999   31.3469 H       195      M_A    0.0000
   2259 H          72.6731   51.9072   30.2770 H       195      M_A    0.0000
   2260 H          71.8640   50.0541   30.2705 H       195      M_A    0.0000
   2261 H          70.0769   50.4676   29.7738 H       195      M_A    0.0000
   2262 H          69.5327   50.7761   30.7464 H       195      M_A    0.0000
   2263 C          71.5980   51.0393   29.2123 C.3     196      M_A    0.0000
   2264 C          70.6576   50.7980   28.8687 C.2     196      M_A    0.0000
   2265 C          70.0093   51.5951   28.9966 C.2     196      M_A    0.0000
   2266 N          69.1531   51.4744   28.6695 N.3     196      M_A    0.0000
   2267 O          70.1979   52.3019   29.3754 O.2     196      M_A    0.0000
   2268 H          71.7520   51.7521   29.1162 H       196      M_A    0.0000
   2269 H          72.1083   50.6697   28.8307 H       196      M_A    0.0000
   2270 H          70.3797   50.2329   29.2511 H       196      M_A    0.0000
   2271 H          69.0676   51.0479   28.1441 H       196      M_A    0.0000
   2272 H          68.7539   52.0247   28.6776 H       196      M_A    0.0000
   2273 C          76.7643   49.2674   36.5844 C.2     197      M_A    0.0000
   2274 C          75.7677   48.4335   36.3028 C.3     197      M_A    0.0000
   2275 C          75.9358   47.2710   36.9407 C.2     197      M_A    0.0000
   2276 N          75.0612   46.4708   36.8024 N.3     197      M_A    0.0000
   2277 O          76.7846   47.0139   37.5278 O.2     197      M_A    0.0000
   2278 H          76.5900   49.7795   37.3648 H       197      M_A    0.0000
   2279 H          76.8713   49.8964   35.8791 H       197      M_A    0.0000
   2280 H          75.7492   48.2376   35.3723 H       197      M_A    0.0000
   2281 H          74.2486   46.7692   36.6414 H       197      M_A    0.0000
   2282 H          75.1184   45.7535   37.3049 H       197      M_A    0.0000
   2283 C          74.5326   48.9705   36.6311 C.3     198      M_A    0.0000
   2284 C          73.9422   49.5844   35.6101 C.3     198      M_A    0.0000
   2285 C          74.4882   49.1984   34.4528 C.2     198      M_A    0.0000
   2286 N          73.9882   49.6474   33.4665 N.3     198      M_A    0.0000
   2287 O          75.3287   48.5533   34.3594 O.2     198      M_A    0.0000
   2288 H          73.9846   48.2894   37.0018 H       198      M_A    0.0000
   2289 H          74.6906   49.5895   37.3356 H       198      M_A    0.0000
   2290 H          74.0629   50.5258   35.6717 H       198      M_A    0.0000
   2291 H          73.1362   49.8676   33.4977 H       198      M_A    0.0000
   2292 H          74.2745   49.3119   32.7077 H       198      M_A    0.0000
   2293 C          72.5764   49.3493   35.5820 C.3     199      M_A    0.0000
   2294 C          72.2347   48.3527   34.7709 C.3     199      M_A    0.0000
   2295 C          72.7318   48.5543   33.5466 C.2     199      M_A    0.0000
   2296 N          72.5323   47.6842   32.7546 N.3     199      M_A    0.0000
   2297 O          73.2587   49.4249   33.2374 O.2     199      M_A    0.0000
   2298 H          72.2653   49.2094   36.4681 H       199      M_A    0.0000
   2299 H          72.1732   50.1595   35.2897 H       199      M_A    0.0000
   2300 H          71.2891   48.3052   34.6804 H       199      M_A    0.0000
   2301 H          72.4321   46.8635   33.0576 H       199      M_A    0.0000
   2302 H          72.9488   47.7656   31.9863 H       199      M_A    0.0000
   2303 C          72.6608   47.1237   35.2499 C.3     200      M_A    0.0000
   2304 C          72.8430   46.2234   34.2887 C.3     200      M_A    0.0000
   2305 C          71.7059   46.0198   33.6164 C.2     200      M_A    0.0000
   2306 N          71.7765   45.2707   32.6900 N.3     200      M_A    0.0000
   2307 O          70.7660   46.4531   33.8612 O.2     200      M_A    0.0000
   2308 H          73.4424   47.2470   35.7747 H       200      M_A    0.0000
   2309 H          71.9876   46.8252   35.8519 H       200      M_A    0.0000
   2310 H          73.0978   45.3856   34.6600 H       200      M_A    0.0000
   2311 H          72.5501   45.1956   32.2762 H       200      M_A    0.0000
   2312 H          71.0603   45.2207   32.1851 H       200      M_A    0.0000
   2313 C          73.8442   46.6001   33.4071 C.3     201      M_A    0.0000
   2314 C          74.0557   45.7073   32.4448 C.3     201      M_A    0.0000
   2315 C          74.6763   44.6295   32.9346 C.2     201      M_A    0.0000
   2316 N          74.8600   43.7391   32.1614 N.3     201      M_A    0.0000
   2317 O          75.0258   44.5277   33.9339 O.2     201      M_A    0.0000
   2318 H          73.6448   47.4599   33.0570 H       201      M_A    0.0000
   2319 H          74.6316   46.7081   33.9295 H       201      M_A    0.0000
   2320 H          74.6218   46.0696   31.7718 H       201      M_A    0.0000
   2321 H          74.3003   43.6543   31.4869 H       201      M_A    0.0000
   2322 H          75.1678   42.9928   32.5061 H       201      M_A    0.0000
   2323 C          72.8773   45.3240   31.8236 C.3     202      M_A    0.0000
   2324 C          72.8342   44.0254   31.5416 C.3     202      M_A    0.0000
   2325 C          74.0252   43.4593   31.7598 C.2     202      M_A    0.0000
   2326 N          74.0781   42.2787   31.5937 N.3     202      M_A    0.0000
   2327 O          74.9072   43.9823   32.0421 O.2     202      M_A    0.0000
   2328 H          72.1403   45.5970   32.3564 H       202      M_A    0.0000
   2329 H          72.8216   45.8330   31.0221 H       202      M_A    0.0000
   2330 H          72.6285   43.8900   30.6229 H       202      M_A    0.0000
   2331 H          73.3417   41.8105   31.7118 H       202      M_A    0.0000
   2332 H          74.8267   41.8925   31.8401 H       202      M_A    0.0000
   2333 C          71.8630   43.3657   32.2785 C.3     203      M_A    0.0000
   2334 C          70.6262   43.7418   31.9673 C.3     203      M_A    0.0000
   2335 C          70.1603   43.0179   30.9448 C.2     203      M_A    0.0000
   2336 N          69.0315   43.2364   30.6247 N.3     203      M_A    0.0000
   2337 O          70.7223   42.2971   30.4009 O.2     203      M_A    0.0000
   2338 H          71.9837   42.4285   32.1860 H       203      M_A    0.0000
   2339 H          72.0428   43.5623   33.1915 H       203      M_A    0.0000
   2340 H          70.6138   44.6514   31.6897 H       203      M_A    0.0000
   2341 H          68.4767   43.5338   31.2404 H       203      M_A    0.0000
   2342 H          68.6919   42.6892   30.0284 H       203      M_A    0.0000
   2343 C          69.7630   43.6330   33.0464 C.3     204      M_A    0.0000
   2344 C          68.8162   44.5664   33.0538 C.3     204      M_A    0.0000
   2345 C          67.8290   44.2251   33.8877 C.2     204      M_A    0.0000
   2346 N          66.9541   45.0270   34.0137 N.3     204      M_A    0.0000
   2347 O          67.7650   43.3024   34.4129 O.2     204      M_A    0.0000
   2348 H          69.3987   42.7564   33.0678 H       204      M_A    0.0000
   2349 H          70.3017   43.7099   33.8265 H       204      M_A    0.0000
   2350 H          68.4290   44.6558   32.1897 H       204      M_A    0.0000
   2351 H          67.1502   45.8765   33.8906 H       204      M_A    0.0000
   2352 H          66.3642   44.8519   34.6396 H       204      M_A    0.0000
   2353 C          69.3156   45.8102   33.4076 C.3     205      M_A    0.0000
   2354 C          68.3734   46.7436   33.5015 C.3     205      M_A    0.0000
   2355 C          68.6326   47.5696   34.5198 C.2     205      M_A    0.0000
   2356 N          67.8762   48.4829   34.6542 N.3     205      M_A    0.0000
   2357 O          69.4335   47.4549   35.2103 O.2     205      M_A    0.0000
   2358 H          69.8168   45.7287   34.2099 H       205      M_A    0.0000
   2359 H          69.9420   46.0470   32.7324 H       205      M_A    0.0000
   2360 H          67.5268   46.3470   33.6765 H       205      M_A    0.0000
   2361 H          67.4609   48.7853   33.9390 H       205      M_A    0.0000
   2362 H          68.1061   49.0831   35.2519 H       205      M_A    0.0000
   2363 C          68.2471   47.4739   32.3300 C.3     206      M_A    0.0000
   2364 C          67.6883   48.6660   32.5157 C.3     206      M_A    0.0000
   2365 C          68.1532   49.2318   33.6339 C.2     206      M_A    0.0000
   2366 N          67.7583   50.3347   33.8616 N.3     206      M_A    0.0000
   2367 O          68.8156   48.7664   34.3237 O.2     206      M_A    0.0000
   2368 H          69.0963   47.5405   31.9105 H       206      M_A    0.0000
   2369 H          67.7090   46.9497   31.7467 H       206      M_A    0.0000
   2370 H          66.7468   48.5808   32.6205 H       206      M_A    0.0000
   2371 H          67.5236   50.8396   33.1795 H       206      M_A    0.0000
   2372 H          68.1443   50.7463   34.5339 H       206      M_A    0.0000
   2373 C          67.9038   49.5139   31.4404 C.3     207      M_A    0.0000
   2374 C          68.0592   50.7844   31.8003 C.2     207      M_A    0.0000
   2375 C          69.3510   51.0573   32.0082 C.2     207      M_A    0.0000
   2376 N          69.6060   52.1915   32.2784 N.3     207      M_A    0.0000
   2377 O          70.1393   50.3443   31.9709 O.2     207      M_A    0.0000
   2378 H          68.6410   49.1949   30.9340 H       207      M_A    0.0000
   2379 H          67.1432   49.4263   30.8762 H       207      M_A    0.0000
   2380 H          67.6055   50.9576   32.6181 H       207      M_A    0.0000
   2381 H          69.0679   52.8200   31.9769 H       207      M_A    0.0000
   2382 H          70.4597   52.3933   32.3081 H       207      M_A    0.0000
   2383 C          66.4906   41.3310   39.9921 C.2     208      M_A    0.0000
   2384 C          66.1982   42.4558   39.6105 C.3     208      M_A    0.0000
   2385 C          64.9809   42.6236   39.6578 C.2     208      M_A    0.0000
   2386 N          64.6253   43.6262   39.3857 N.3     208      M_A    0.0000
   2387 O          64.3278   41.9350   39.8957 O.2     208      M_A    0.0000
   2388 H          66.5769   41.2921   40.8605 H       208      M_A    0.0000
   2389 H          67.2668   41.0958   39.6637 H       208      M_A    0.0000
   2390 H          66.4379   42.5692   38.7766 H       208      M_A    0.0000
   2391 H          65.1241   44.2531   39.5063 H       208      M_A    0.0000
   2392 H          63.8400   43.7657   39.5120 H       208      M_A    0.0000
   2393 C          66.7822   43.3596   40.2949 C.3     209      M_A    0.0000
   2394 C          68.0022   43.2783   40.2562 C.3     209      M_A    0.0000
   2395 C          68.4304   43.7294   39.1954 C.2     209      M_A    0.0000
   2396 N          69.5232   43.7502   39.0908 N.3     209      M_A    0.0000
   2397 O          67.8749   44.0425   38.4532 O.2     209      M_A    0.0000
   2398 H          66.4982   44.1442   40.0365 H       209      M_A    0.0000
   2399 H          66.5017   43.2627   41.1180 H       209      M_A    0.0000
   2400 H          68.2556   42.4418   40.2971 H       209      M_A    0.0000
   2401 H          69.9693   43.8106   39.7643 H       209      M_A    0.0000
   2402 H          69.8056   44.1360   38.4400 H       209      M_A    0.0000
   2403 C          68.5529   43.8853   41.2333 C.3     210      M_A    0.0000
   2404 C          69.7697   43.7618   41.2512 C.3     210      M_A    0.0000
   2405 C          70.2318   43.8866   40.1184 C.2     210      M_A    0.0000
   2406 N          71.3263   43.8463   40.0411 N.3     210      M_A    0.0000
   2407 O          69.7006   43.9958   39.3040 O.2     210      M_A    0.0000
   2408 H          68.3091   44.7241   41.2246 H       210      M_A    0.0000
   2409 H          68.2066   43.5430   41.9603 H       210      M_A    0.0000
   2410 H          69.9933   42.9631   41.5299 H       210      M_A    0.0000
   2411 H          71.7624   44.0796   40.6828 H       210      M_A    0.0000
   2412 H          71.6333   44.0270   39.3164 H       210      M_A    0.0000
   2413 C          70.3239   44.6015   42.0349 C.3     211      M_A    0.0000
   2414 C          70.6032   45.6586   41.4864 C.3     211      M_A    0.0000
   2415 C          69.6621   46.0480   40.7973 C.2     211      M_A    0.0000
   2416 N          69.7983   47.0211   40.3074 N.3     211      M_A    0.0000
   2417 O          68.8329   45.5508   40.6464 O.2     211      M_A    0.0000
   2418 H          69.8150   44.7204   42.7349 H       211      M_A    0.0000
   2419 H          71.0517   44.2163   42.3308 H       211      M_A    0.0000
   2420 H          71.2856   45.5546   40.9487 H       211      M_A    0.0000
   2421 H          70.2902   47.5596   40.6600 H       211      M_A    0.0000
   2422 H          69.1463   47.3218   39.9381 H       211      M_A    0.0000
   2423 C          70.9221   46.5634   42.3267 C.3     212      M_A    0.0000
   2424 C          71.3918   47.5630   41.8011 C.3     212      M_A    0.0000
   2425 C          71.0097   48.5760   42.3841 C.2     212      M_A    0.0000
   2426 N          71.4244   49.5243   42.0174 N.3     212      M_A    0.0000
   2427 O          70.3634   48.5913   43.1186 O.2     212      M_A    0.0000
   2428 H          70.2290   46.7503   42.8245 H       212      M_A    0.0000
   2429 H          71.5115   46.2022   42.8631 H       212      M_A    0.0000
   2430 H          71.1209   47.6300   40.9717 H       212      M_A    0.0000
   2431 H          72.1556   49.5109   41.6689 H       212      M_A    0.0000
   2432 H          71.2526   50.1768   42.4610 H       212      M_A    0.0000
   2433 C          72.6667   47.5369   41.7784 C.3     213      M_A    0.0000
   2434 C          73.1772   48.2995   42.5871 C.3     213      M_A    0.0000
   2435 C          72.5714   48.2615   43.6566 C.2     213      M_A    0.0000
   2436 N          72.9906   48.8738   44.4659 N.3     213      M_A    0.0000
   2437 O          71.7526   47.7515   43.8205 O.2     213      M_A    0.0000
   2438 H          72.9391   46.7141   41.8872 H       213      M_A    0.0000
   2439 H          72.9014   47.7613   40.9659 H       213      M_A    0.0000
   2440 H          73.1344   49.1251   42.3002 H       213      M_A    0.0000
   2441 H          73.7871   49.0216   44.4583 H       213      M_A    0.0000
   2442 H          72.6535   48.7725   45.1926 H       213      M_A    0.0000
   2443 C          74.4091   48.0338   42.7829 C.3     214      M_A    0.0000
   2444 C          75.1471   48.9824   42.5552 C.2     214      M_A    0.0000
   2445 C          75.3244   49.6448   43.5760 C.2     214      M_A    0.0000
   2446 N          76.0201   50.4892   43.4836 N.3     214      M_A    0.0000
   2447 O          74.8822   49.4837   44.4339 O.2     214      M_A    0.0000
   2448 H          74.5114   47.7269   43.5943 H       214      M_A    0.0000
   2449 H          74.6036   47.3684   42.2491 H       214      M_A    0.0000
   2450 H          74.7859   49.5177   41.9647 H       214      M_A    0.0000
   2451 H          76.6070   50.4401   42.9274 H       214      M_A    0.0000
   2452 H          76.2127   50.8616   44.1737 H       214      M_A    0.0000
   2453 C          22.3492   62.6816   14.7847 C.2     215      M_A    0.0000
   2454 C          21.8786   63.5824   14.5267 C.3     215      M_A    0.0000
   2455 C          20.8370   63.4441   14.4437 C.2     215      M_A    0.0000
   2456 N          20.3338   64.2181   14.2605 N.3     215      M_A    0.0000
   2457 O          20.4422   62.7071   14.5112 O.2     215      M_A    0.0000
   2458 H          22.5445   62.6640   15.5073 H       215      M_A    0.0000
   2459 H          22.9872   62.6054   14.3978 H       215      M_A    0.0000
   2460 H          22.1200   63.8236   13.8588 H       215      M_A    0.0000
   2461 H          20.5857   64.8292   14.4732 H       215      M_A    0.0000
   2462 H          19.6464   64.1436   14.2906 H       215      M_A    0.0000
   2463 C          22.0873   64.3753   15.2497 C.3     216      M_A    0.0000
   2464 C          21.8074   64.1242   16.2284 C.3     216      M_A    0.0000
   2465 C          21.1978   63.2643   16.2289 C.2     216      M_A    0.0000
   2466 N          20.9413   62.9439   17.0758 N.3     216      M_A    0.0000
   2467 O          20.9210   62.8701   15.5423 O.2     216      M_A    0.0000
   2468 H          22.8101   64.5656   15.2047 H       216      M_A    0.0000
   2469 H          21.7023   64.9761   15.0189 H       216      M_A    0.0000
   2470 H          21.4047   64.6766   16.5370 H       216      M_A    0.0000
   2471 H          21.3620   63.0699   17.6138 H       216      M_A    0.0000
   2472 H          20.6142   62.3339   17.0798 H       216      M_A    0.0000
   2473 C          22.6748   63.9598   16.8732 C.3     217      M_A    0.0000
   2474 C          22.4894   64.1899   17.8792 C.3     217      M_A    0.0000
   2475 C          22.1892   63.3275   18.4058 C.2     217      M_A    0.0000
   2476 N          22.0485   63.4393   19.3296 N.3     217      M_A    0.0000
   2477 O          22.0549   62.5750   18.0606 O.2     217      M_A    0.0000
   2478 H          22.9165   63.2565   16.7862 H       217      M_A    0.0000
   2479 H          23.2209   64.3989   16.6060 H       217      M_A    0.0000
   2480 H          21.9299   64.6860   17.9370 H       217      M_A    0.0000
   2481 H          22.4056   63.9373   19.6564 H       217      M_A    0.0000
   2482 H          21.9353   62.8585   19.6887 H       217      M_A    0.0000
   2483 C          23.3627   64.6319   18.3660 C.3     218      M_A    0.0000
   2484 C          24.0845   63.9225   18.6400 C.3     218      M_A    0.0000
   2485 C          23.9011   63.0038   18.1567 C.2     218      M_A    0.0000
   2486 N          24.5339   62.3248   18.3129 N.3     218      M_A    0.0000
   2487 O          23.2377   62.8396   17.6706 O.2     218      M_A    0.0000
   2488 H          23.6472   65.1654   17.9242 H       218      M_A    0.0000
   2489 H          23.1063   64.9856   18.9756 H       218      M_A    0.0000
   2490 H          24.0564   63.7897   19.3776 H       218      M_A    0.0000
   2491 H          25.1855   62.5135   18.4614 H       218      M_A    0.0000
   2492 H          24.4609   61.7525   17.9305 H       218      M_A    0.0000
   2493 C          25.0988   64.2610   18.4126 C.3     219      M_A    0.0000
   2494 C          25.8196   63.5084   18.5278 C.3     219      M_A    0.0000
   2495 C          25.5399   62.6444   17.9926 C.2     219      M_A    0.0000
   2496 N          26.1589   61.9356   18.0056 N.3     219      M_A    0.0000
   2497 O          24.8147   62.5455   17.5830 O.2     219      M_A    0.0000
   2498 H          25.1109   64.5583   17.7254 H       219      M_A    0.0000
   2499 H          25.2413   64.8271   18.8835 H       219      M_A    0.0000
   2500 H          25.8786   63.3085   19.2483 H       219      M_A    0.0000
   2501 H          26.8311   62.0906   18.0854 H       219      M_A    0.0000
   2502 H          26.0154   61.4037   17.5866 H       219      M_A    0.0000
   2503 C          26.8104   63.8368   18.2030 C.3     220      M_A    0.0000
   2504 C          27.5163   63.0617   18.1869 C.3     220      M_A    0.0000
   2505 C          27.3983   62.4730   17.3206 C.2     220      M_A    0.0000
   2506 N          28.0263   61.7814   17.2062 N.3     220      M_A    0.0000
   2507 O          26.7880   62.5682   16.7532 O.2     220      M_A    0.0000
   2508 H          26.7516   64.1766   17.5383 H       220      M_A    0.0000
   2509 H          27.0240   64.3685   18.6870 H       220      M_A    0.0000
   2510 H          27.4201   62.6058   18.7747 H       220      M_A    0.0000
   2511 H          28.6568   61.8633   17.4855 H       220      M_A    0.0000
   2512 H          28.0017   61.4508   16.5985 H       220      M_A    0.0000
   2513 C          28.5409   63.4396   18.2374 C.3     221      M_A    0.0000
   2514 C          29.2496   62.6861   18.4083 C.3     221      M_A    0.0000
   2515 C          29.1193   61.8948   17.7243 C.2     221      M_A    0.0000
   2516 N          29.7482   61.1968   17.7800 N.3     221      M_A    0.0000
   2517 O          28.4991   61.8415   17.1622 O.2     221      M_A    0.0000
   2518 H          28.6904   63.8297   17.6160 H       221      M_A    0.0000
   2519 H          28.5537   63.9361   18.7994 H       221      M_A    0.0000
   2520 H          29.1653   62.3962   19.0950 H       221      M_A    0.0000
   2521 H          30.3830   61.3474   18.0179 H       221      M_A    0.0000
   2522 H          29.7146   60.7214   17.2780 H       221      M_A    0.0000
   2523 C          30.2733   63.0639   18.3422 C.3     222      M_A    0.0000
   2524 C          30.7975   62.9932   19.2475 C.3     222      M_A    0.0000
   2525 C          31.8038   62.7332   19.0719 C.2     222      M_A    0.0000
   2526 N          32.3564   62.6955   19.8329 N.3     222      M_A    0.0000
   2527 O          32.1290   62.5464   18.3217 O.2     222      M_A    0.0000
   2528 H          30.6292   62.7143   17.7838 H       222      M_A    0.0000
   2529 H          30.2186   63.7820   18.1328 H       222      M_A    0.0000
   2530 H          30.5056   62.4538   19.6793 H       222      M_A    0.0000
   2531 H          32.1924   63.0962   20.3757 H       222      M_A    0.0000
   2532 H          33.0320   62.6093   19.7095 H       222      M_A    0.0000
   2533 C          30.7531   63.9231   19.8204 C.3     223      M_A    0.0000
   2534 C          30.5931   63.7683   20.8450 C.3     223      M_A    0.0000
   2535 C          31.5100   63.7629   21.3650 C.2     223      M_A    0.0000
   2536 N          31.4505   63.6764   22.3003 N.3     223      M_A    0.0000
   2537 O          32.2669   63.8119   21.0069 O.2     223      M_A    0.0000
   2538 H          31.3731   64.3223   19.6904 H       223      M_A    0.0000
   2539 H          30.1880   64.3215   19.5298 H       223      M_A    0.0000
   2540 H          30.2719   63.1009   20.9633 H       223      M_A    0.0000
   2541 H          30.8763   63.9092   22.6139 H       223      M_A    0.0000
   2542 H          32.0434   63.7584   22.6479 H       223      M_A    0.0000
   2543 C          29.9313   64.5245   21.2752 C.3     224      M_A    0.0000
   2544 C          28.9720   64.1589   21.4882 C.3     224      M_A    0.0000
   2545 C          28.9062   63.8606   22.4970 C.2     224      M_A    0.0000
   2546 N          28.0601   63.5632   22.7824 N.3     224      M_A    0.0000
   2547 O          29.5453   63.8552   23.0401 O.2     224      M_A    0.0000
   2548 H          30.2582   64.8230   21.8791 H       224      M_A    0.0000
   2549 H          29.8889   65.0776   20.7704 H       224      M_A    0.0000
   2550 H          28.8227   63.5531   21.0719 H       224      M_A    0.0000
   2551 H          27.4994   63.8145   22.4587 H       224      M_A    0.0000
   2552 H          27.9953   63.4490   23.4620 H       224      M_A    0.0000
   2553 C          28.1950   64.8969   21.2720 C.3     225      M_A    0.0000
   2554 C          27.2431   64.5993   21.5957 C.3     225      M_A    0.0000
   2555 C          27.2443   64.4258   22.6354 C.2     225      M_A    0.0000
   2556 N          26.4130   64.1999   23.0144 N.3     225      M_A    0.0000
   2557 O          27.9223   64.4583   23.1281 O.2     225      M_A    0.0000
   2558 H          28.3958   65.5578   21.5612 H       225      M_A    0.0000
   2559 H          28.1955   64.9899   20.5278 H       225      M_A    0.0000
   2560 H          27.0430   63.9551   21.2678 H       225      M_A    0.0000
   2561 H          25.8379   64.4341   22.7035 H       225      M_A    0.0000
   2562 H          26.3963   64.1700   23.7057 H       225      M_A    0.0000
   2563 C          26.4765   65.3382   21.3476 C.3     226      M_A    0.0000
   2564 C          26.3613   65.4811   20.3153 C.3     226      M_A    0.0000
   2565 C          25.7291   64.7422   19.9086 C.2     226      M_A    0.0000
   2566 N          25.5356   64.8275   18.9915 N.3     226      M_A    0.0000
   2567 O          25.4115   64.0930   20.3342 O.2     226      M_A    0.0000
   2568 H          25.8327   65.1453   21.6777 H       226      M_A    0.0000
   2569 H          26.6900   65.9792   21.6731 H       226      M_A    0.0000
   2570 H          27.0219   65.4188   19.9655 H       226      M_A    0.0000
   2571 H          25.5483   65.4634   18.7129 H       226      M_A    0.0000
   2572 H          25.0551   64.3949   18.7444 H       226      M_A    0.0000
   2573 C          25.9656   66.4728   20.0806 C.3     227      M_A    0.0000
   2574 C          26.7143   67.1743   19.8646 C.3     227      M_A    0.0000
   2575 C          26.2875   68.1087   19.6285 C.2     227      M_A    0.0000
   2576 N          26.8959   68.8085   19.4676 N.3     227      M_A    0.0000
   2577 O          25.4652   68.2589   19.5598 O.2     227      M_A    0.0000
   2578 H          25.4675   66.4139   19.5247 H       227      M_A    0.0000
   2579 H          25.5758   66.6908   20.6831 H       227      M_A    0.0000
   2580 H          27.1119   66.9591   19.2661 H       227      M_A    0.0000
   2581 H          27.5159   68.7803   19.7790 H       227      M_A    0.0000
   2582 H          26.6175   69.4383   19.3972 H       227      M_A    0.0000
   2583 C          27.4179   67.2908   20.6931 C.3     228      M_A    0.0000
   2584 C          27.3651   68.2337   21.1486 C.3     228      M_A    0.0000
   2585 C          27.3051   68.1347   22.1963 C.2     228      M_A    0.0000
   2586 N          27.3020   68.9392   22.6848 N.3     228      M_A    0.0000
   2587 O          27.2441   67.4067   22.6084 O.2     228      M_A    0.0000
   2588 H          27.3137   66.7356   21.1846 H       228      M_A    0.0000
   2589 H          28.1016   67.1834   20.4042 H       228      M_A    0.0000
   2590 H          26.7474   68.5981   20.9288 H       228      M_A    0.0000
   2591 H          27.6192   69.4910   22.4071 H       228      M_A    0.0000
   2592 H          27.3489   68.8734   23.3722 H       228      M_A    0.0000
   2593 C          28.2198   68.8633   20.8876 C.3     229      M_A    0.0000
   2594 C          28.7914   69.1472   21.7195 C.3     229      M_A    0.0000
   2595 C          29.0689   68.3006   22.2829 C.2     229      M_A    0.0000
   2596 N          29.6258   68.4654   23.0235 N.3     229      M_A    0.0000
   2597 O          28.8180   67.5155   22.1275 O.2     229      M_A    0.0000
   2598 H          28.6328   68.5151   20.3690 H       229      M_A    0.0000
   2599 H          27.9374   69.4710   20.5508 H       229      M_A    0.0000
   2600 H          28.3920   69.5900   22.1745 H       229      M_A    0.0000
   2601 H          30.0457   69.0180   22.9997 H       229      M_A    0.0000
   2602 H          29.8767   67.9042   23.3415 H       229      M_A    0.0000
   2603 C          29.6857   69.7056   21.4309 C.3     230      M_A    0.0000
   2604 C          29.6228   70.7280   21.6546 C.2     230      M_A    0.0000
   2605 C          30.0118   70.9202   22.6152 C.2     230      M_A    0.0000
   2606 N          30.0357   71.8246   22.8745 N.3     230      M_A    0.0000
   2607 O          30.2771   70.3341   23.1534 O.2     230      M_A    0.0000
   2608 H          30.2868   69.3865   21.7433 H       230      M_A    0.0000
   2609 H          29.7634   69.6091   20.6912 H       230      M_A    0.0000
   2610 H          28.9072   70.9526   21.6607 H       230      M_A    0.0000
   2611 H          30.0900   72.3058   22.3767 H       230      M_A    0.0000
   2612 H          30.3679   71.9586   23.4668 H       230      M_A    0.0000
   2613 C          84.8017   36.0896   40.1387 C.2     231      M_A    0.0000
   2614 C          84.4272   34.6012   40.0941 C.3     231      M_A    0.0000
   2615 C          83.6765   34.1941   41.3799 C.2     231      M_A    0.0000
   2616 N          83.2261   32.8923   41.4256 N.3     231      M_A    0.0000
   2617 O          83.4836   34.9276   42.3459 O.2     231      M_A    0.0000
   2618 H          84.3293   36.6071   40.9821 H       231      M_A    0.0000
   2619 H          84.4384   36.5957   39.2342 H       231      M_A    0.0000
   2620 H          85.3301   33.9780   40.0414 H       231      M_A    0.0000
   2621 H          83.0122   32.4292   40.5460 H       231      M_A    0.0000
   2622 H          82.6279   32.6612   42.2105 H       231      M_A    0.0000
   2623 C          83.5339   34.2454   38.8143 C.3     232      M_A    0.0000
   2624 C          82.0284   34.4135   39.0642 C.3     232      M_A    0.0000
   2625 C          81.2354   34.1882   37.7593 C.2     232      M_A    0.0000
   2626 N          79.8630   34.2447   37.8732 N.3     232      M_A    0.0000
   2627 O          81.7360   33.9932   36.6548 O.2     232      M_A    0.0000
   2628 H          83.8772   34.8390   37.9587 H       232      M_A    0.0000
   2629 H          83.7588   33.1999   38.5641 H       232      M_A    0.0000
   2630 H          81.8052   35.4351   39.4004 H       232      M_A    0.0000
   2631 H          79.4469   33.9983   38.7677 H       232      M_A    0.0000
   2632 H          79.3416   33.9743   37.0472 H       232      M_A    0.0000
   2633 C          81.4934   33.4174   40.1974 C.3     233      M_A    0.0000
   2634 C          79.9668   33.4512   40.3582 C.3     233      M_A    0.0000
   2635 C          79.6055   32.1848   40.8488 C.2     233      M_A    0.0000
   2636 N          78.3857   32.0209   41.0937 N.3     233      M_A    0.0000
   2637 O          80.3118   31.3324   41.0077 O.2     233      M_A    0.0000
   2638 H          81.8626   32.4056   39.9917 H       233      M_A    0.0000
   2639 H          81.9767   33.7291   41.1331 H       233      M_A    0.0000
   2640 H          79.5018   33.5658   39.4802 H       233      M_A    0.0000
   2641 H          77.8839   32.7645   41.3226 H       233      M_A    0.0000
   2642 H          78.1653   31.2331   41.5208 H       233      M_A    0.0000
   2643 C          79.4586   34.4854   41.2507 C.3     234      M_A    0.0000
   2644 C          78.0725   34.6479   41.1696 C.3     234      M_A    0.0000
   2645 C          77.4257   33.4026   41.2473 C.2     234      M_A    0.0000
   2646 N          76.1712   33.4371   41.2479 N.3     234      M_A    0.0000
   2647 O          77.9428   32.4118   41.2840 O.2     234      M_A    0.0000
   2648 H          79.7586   34.2910   42.1829 H       234      M_A    0.0000
   2649 H          79.9185   35.3332   40.9866 H       234      M_A    0.0000
   2650 H          77.8174   35.0530   40.2916 H       234      M_A    0.0000
   2651 H          75.7567   34.1939   41.5836 H       234      M_A    0.0000
   2652 H          75.7485   32.6336   41.4130 H       234      M_A    0.0000
   2653 C          77.5639   35.5298   42.2127 C.3     235      M_A    0.0000
   2654 C          76.5219   36.3530   41.7757 C.3     235      M_A    0.0000
   2655 C          75.3054   35.6494   41.7766 C.2     235      M_A    0.0000
   2656 N          74.2890   36.3141   41.4605 N.3     235      M_A    0.0000
   2657 O          75.1930   34.5618   42.0115 O.2     235      M_A    0.0000
   2658 H          77.3013   34.9830   43.0057 H       235      M_A    0.0000
   2659 H          78.3390   36.0875   42.5096 H       235      M_A    0.0000
   2660 H          76.6827   36.6534   40.8354 H       235      M_A    0.0000
   2661 H          74.2952   37.2248   41.6274 H       235      M_A    0.0000
   2662 H          73.4795   35.8848   41.5708 H       235      M_A    0.0000
   2663 C          76.3942   37.5529   42.5932 C.3     236      M_A    0.0000
   2664 C          76.0594   38.6895   41.8513 C.3     236      M_A    0.0000
   2665 C          75.0518   39.4224   42.5015 C.2     236      M_A    0.0000
   2666 N          74.7181   40.5000   41.9518 N.3     236      M_A    0.0000
   2667 O          74.5283   39.1037   43.4370 O.2     236      M_A    0.0000
   2668 H          75.7418   37.3809   43.3291 H       236      M_A    0.0000
   2669 H          77.2802   37.6835   43.0382 H       236      M_A    0.0000
   2670 H          75.6975   38.4302   40.9558 H       236      M_A    0.0000
   2671 H          75.3498   40.9403   41.4377 H       236      M_A    0.0000
   2672 H          74.1414   41.0344   42.4351 H       236      M_A    0.0000
   2673 C          77.2139   39.5473   41.6152 C.3     237      M_A    0.0000
   2674 C          77.4403   39.8021   40.2594 C.3     237      M_A    0.0000
   2675 C          76.4955   40.7183   39.7664 C.2     237      M_A    0.0000
   2676 N          76.6450   41.0677   38.5704 N.3     237      M_A    0.0000
   2677 O          75.6316   41.1253   40.3483 O.2     237      M_A    0.0000
   2678 H          77.1106   40.3892   42.1418 H       237      M_A    0.0000
   2679 H          78.0003   39.0724   42.0100 H       237      M_A    0.0000
   2680 H          77.3390   38.9641   39.7231 H       237      M_A    0.0000
   2681 H          77.5001   41.0510   38.2156 H       237      M_A    0.0000
   2682 H          76.0970   41.7517   38.2814 H       237      M_A    0.0000
   2683 C          78.7856   40.3071   40.0157 C.3     238      M_A    0.0000
   2684 C          79.1806   40.1945   38.6794 C.3     238      M_A    0.0000
   2685 C          78.1334   40.5755   37.8230 C.2     238      M_A    0.0000
   2686 N          78.4012   40.5727   36.5970 N.3     238      M_A    0.0000
   2687 O          77.1011   40.8501   38.1539 O.2     238      M_A    0.0000
   2688 H          78.8484   41.2471   40.3464 H       238      M_A    0.0000
   2689 H          79.3955   39.7706   40.5990 H       238      M_A    0.0000
   2690 H          79.4052   39.2453   38.4586 H       238      M_A    0.0000
   2691 H          79.2800   40.7159   36.3430 H       238      M_A    0.0000
   2692 H          77.7539   40.9301   36.0449 H       238      M_A    0.0000
   2693 C          80.3648   40.9937   38.3906 C.3     239      M_A    0.0000
   2694 C          80.3373   41.5764   37.1200 C.3     239      M_A    0.0000
   2695 C          79.1387   42.2850   36.9295 C.2     239      M_A    0.0000
   2696 N          79.0357   42.9026   35.8419 N.3     239      M_A    0.0000
   2697 O          78.2874   42.3132   37.6541 O.2     239      M_A    0.0000
   2698 H          80.4857   41.6738   39.1114 H       239      M_A    0.0000
   2699 H          81.1456   40.3736   38.4657 H       239      M_A    0.0000
   2700 H          80.3743   40.8727   36.4104 H       239      M_A    0.0000
   2701 H          79.8128   43.1917   35.4300 H       239      M_A    0.0000
   2702 H          78.3024   43.4576   35.7645 H       239      M_A    0.0000
   2703 C          81.4717   42.4652   36.9021 C.3     240      M_A    0.0000
   2704 C          81.4784   43.0449   35.6299 C.3     240      M_A    0.0000
   2705 C          80.4058   43.9425   35.4925 C.2     240      M_A    0.0000
   2706 N          80.3528   44.5690   34.4065 N.3     240      M_A    0.0000
   2707 O          79.6077   44.1111   36.2576 O.2     240      M_A    0.0000
   2708 H          81.4945   43.1521   37.6263 H       240      M_A    0.0000
   2709 H          82.2921   41.9075   37.0282 H       240      M_A    0.0000
   2710 H          81.3633   42.3451   34.9248 H       240      M_A    0.0000
   2711 H          81.1458   44.7255   33.9550 H       240      M_A    0.0000
   2712 H          79.7187   45.2379   34.3605 H       240      M_A    0.0000
   2713 C          82.7321   43.7335   35.3500 C.3     241      M_A    0.0000
   2714 C          82.6428   45.1203   35.5029 C.3     241      M_A    0.0000
   2715 C          81.5330   45.6221   34.8017 C.2     241      M_A    0.0000
   2716 N          81.3208   46.8530   34.9226 N.3     241      M_A    0.0000
   2717 O          80.8615   45.0161   34.1441 O.2     241      M_A    0.0000
   2718 H          83.4556   43.3408   35.9149 H       241      M_A    0.0000
   2719 H          82.9699   43.5081   34.4052 H       241      M_A    0.0000
   2720 H          83.4525   45.5681   35.1234 H       241      M_A    0.0000
   2721 H          81.6009   47.2687   35.7010 H       241      M_A    0.0000
   2722 H          80.5313   47.1611   34.5573 H       241      M_A    0.0000
   2723 C          82.5539   45.5108   36.9043 C.3     242      M_A    0.0000
   2724 C          81.8425   46.6983   37.0992 C.3     242      M_A    0.0000
   2725 C          80.4637   46.4778   36.9401 C.2     242      M_A    0.0000
   2726 N          79.7232   47.4676   37.1560 N.3     242      M_A    0.0000
   2727 O          80.0009   45.5113   36.6202 O.2     242      M_A    0.0000
   2728 H          82.1714   44.7546   37.4322 H       242      M_A    0.0000
   2729 H          83.4951   45.6193   37.2244 H       242      M_A    0.0000
   2730 H          82.1075   47.3819   36.4190 H       242      M_A    0.0000
   2731 H          80.0215   48.1136   37.7484 H       242      M_A    0.0000
   2732 H          78.8165   47.2954   37.1631 H       242      M_A    0.0000
   2733 C          82.0973   47.2785   38.4118 C.3     243      M_A    0.0000
   2734 C          81.0341   47.1077   39.3033 C.2     243      M_A    0.0000
   2735 C          81.1940   45.9204   40.0381 C.2     243      M_A    0.0000
   2736 N          80.3250   45.6995   40.9160 N.3     243      M_A    0.0000
   2737 O          82.0090   45.1716   39.8786 O.2     243      M_A    0.0000
   2738 H          82.9517   46.9099   38.7735 H       243      M_A    0.0000
   2739 H          82.2627   48.2529   38.2593 H       243      M_A    0.0000
   2740 H          80.1695   47.0276   38.8072 H       243      M_A    0.0000
   2741 H          79.9005   46.4267   41.3012 H       243      M_A    0.0000
   2742 H          80.4914   44.9826   41.4728 H       243      M_A    0.0000
   2743 C          50.8265   51.8675   22.6342 C.2     244      M_A    0.0000
   2744 C          51.4556   50.5122   22.9879 C.3     244      M_A    0.0000
   2745 C          52.5916   50.6957   24.0165 C.2     244      M_A    0.0000
   2746 N          53.1885   49.5372   24.4650 N.3     244      M_A    0.0000
   2747 O          53.0017   51.7776   24.4286 O.2     244      M_A    0.0000
   2748 H          49.9804   52.1108   23.2878 H       244      M_A    0.0000
   2749 H          50.4196   51.8382   21.6145 H       244      M_A    0.0000
   2750 H          51.9035   50.0510   22.0973 H       244      M_A    0.0000
   2751 H          52.6347   48.6844   24.4688 H       244      M_A    0.0000
   2752 H          53.8452   49.6481   25.2291 H       244      M_A    0.0000
   2753 C          50.3741   49.4797   23.5595 C.3     245      M_A    0.0000
   2754 C          50.6995   48.0175   23.2224 C.3     245      M_A    0.0000
   2755 C          51.5554   47.3831   24.3392 C.2     245      M_A    0.0000
   2756 N          51.8537   46.0468   24.1814 N.3     245      M_A    0.0000
   2757 O          51.9955   47.9823   25.3168 O.2     245      M_A    0.0000
   2758 H          50.2605   49.6371   24.6387 H       245      M_A    0.0000
   2759 H          49.4122   49.7634   23.1116 H       245      M_A    0.0000
   2760 H          51.2878   47.9571   22.2968 H       245      M_A    0.0000
   2761 H          51.2035   45.4709   23.6526 H       245      M_A    0.0000
   2762 H          52.3065   45.6009   24.9711 H       245      M_A    0.0000
   2763 C          49.3765   47.1449   22.9974 C.3     246      M_A    0.0000
   2764 C          48.6243   46.8431   24.3014 C.3     246      M_A    0.0000
   2765 C          49.0264   47.8476   25.4022 C.2     246      M_A    0.0000
   2766 N          48.3627   47.7199   26.6033 N.3     246      M_A    0.0000
   2767 O          49.8926   48.7107   25.2868 O.2     246      M_A    0.0000
   2768 H          48.7365   47.6439   22.2600 H       246      M_A    0.0000
   2769 H          49.7031   46.2080   22.5266 H       246      M_A    0.0000
   2770 H          48.8832   45.8425   24.6731 H       246      M_A    0.0000
   2771 H          47.4233   47.3306   26.5915 H       246      M_A    0.0000
   2772 H          48.5349   48.4535   27.2812 H       246      M_A    0.0000
   2773 C          47.0366   46.8740   24.0992 C.3     247      M_A    0.0000
   2774 C          46.3089   47.7038   25.1666 C.3     247      M_A    0.0000
   2775 C          47.1167   48.9742   25.5072 C.2     247      M_A    0.0000
   2776 N          46.5281   49.8370   26.4064 N.3     247      M_A    0.0000
   2777 O          48.2286   49.2436   25.0603 O.2     247      M_A    0.0000
   2778 H          46.8091   47.2202   23.0839 H       247      M_A    0.0000
   2779 H          46.7013   45.8291   24.1425 H       247      M_A    0.0000
   2780 H          46.2085   47.1307   26.0982 H       247      M_A    0.0000
   2781 H          45.5128   49.8532   26.4592 H       247      M_A    0.0000
   2782 H          46.9973   50.7263   26.5343 H       247      M_A    0.0000
   2783 C          44.8321   48.1135   24.7043 C.3     248      M_A    0.0000
   2784 C          44.0571   48.8889   25.7792 C.3     248      M_A    0.0000
   2785 C          42.0418   48.0394   26.2853 C.2     248      M_A    0.0000
   2786 N          41.0440   48.9724   27.7522 N.3     248      M_A    0.0000
   2787 O          41.2789   46.6495   25.4625 O.2     248      M_A    0.0000
   2788 H          44.8905   48.6676   23.7599 H       248      M_A    0.0000
   2789 H          44.3123   47.1747   24.4701 H       248      M_A    0.0000
   2790 H          43.8133   50.3755   25.2479 H       248      M_A    0.0000
   2791 H          41.8294   49.6741   28.7904 H       248      M_A    0.0000
   2792 H          39.8083   48.3098   28.2072 H       248      M_A    0.0000
   2793 C          45.3438   49.0550   27.7124 C.3     249      M_A    0.0000
   2794 C          44.1171   49.2546   29.5677 C.3     249      M_A    0.0000
   2795 C          42.5379   47.6609   29.6411 C.2     249      M_A    0.0000
   2796 N          41.4053   47.6291   31.2946 N.3     249      M_A    0.0000
   2797 O          42.2127   46.4789   28.3418 O.2     249      M_A    0.0000
   2798 H          46.3416   47.8132   27.7866 H       249      M_A    0.0000
   2799 H          46.2658   50.3458   27.5255 H       249      M_A    0.0000
   2800 H          43.3584   50.6602   29.5896 H       249      M_A    0.0000
   2801 H          41.9942   48.1409   32.5509 H       249      M_A    0.0000
   2802 H          40.4946   46.4772   31.4242 H       249      M_A    0.0000
   2803 C          45.4229   49.1510   31.4924 C.3     250      M_A    0.0000
   2804 C          45.2899   47.1820   32.5373 C.3     250      M_A    0.0000
   2805 C          44.3024   45.6574   31.2184 C.2     250      M_A    0.0000
   2806 N          44.1908   43.7996   31.9629 N.3     250      M_A    0.0000
   2807 O          43.5980   45.9937   29.6117 O.2     250      M_A    0.0000
   2808 H          46.9274   49.5330   31.1266 H       250      M_A    0.0000
   2809 H          44.8974   50.3152   32.4515 H       250      M_A    0.0000
   2810 H          44.3940   47.3055   33.8541 H       250      M_A    0.0000
   2811 H          45.2235   43.3761   32.9331 H       250      M_A    0.0000
   2812 H          43.7100   42.7644   31.0300 H       250      M_A    0.0000
   2813 C          47.3811   46.4041   33.2022 C.3     251      M_A    0.0000
   2814 C          48.1860   44.8039   31.8687 C.3     251      M_A    0.0000
   2815 C          47.6325   45.2097   29.7313 C.2     251      M_A    0.0000
   2816 N          48.3623   43.9213   28.3804 N.3     251      M_A    0.0000
   2817 O          46.5839   46.5465   29.1797 O.2     251      M_A    0.0000
   2818 H          48.3839   47.6376   33.3278 H       251      M_A    0.0000
   2819 H          47.1963   45.8384   34.6845 H       251      M_A    0.0000
   2820 H          47.5550   43.3867   32.2497 H       251      M_A    0.0000
   2821 H          49.6310   43.2291   28.6941 H       251      M_A    0.0000
   2822 H          48.1525   44.2880   26.9681 H       251      M_A    0.0000
   2823 C          50.4975   44.5961   32.0522 C.3     252      M_A    0.0000
   2824 C          51.3650   43.1389   30.5994 C.3     252      M_A    0.0000
   2825 C          50.7077   43.6270   28.5092 C.2     252      M_A    0.0000
   2826 N          51.4777   42.4758   27.0602 N.3     252      M_A    0.0000
   2827 O          49.5481   44.9139   28.0730 O.2     252      M_A    0.0000
   2828 H          51.1656   46.0384   31.9229 H       252      M_A    0.0000
   2829 H          50.7851   44.1138   33.5475 H       252      M_A    0.0000
   2830 H          50.8499   41.6598   30.9137 H       252      M_A    0.0000
   2831 H          52.8026   41.8605   27.2910 H       252      M_A    0.0000
   2832 H          51.1918   42.9077   25.6801 H       252      M_A    0.0000
   2833 C          53.6906   43.0894   30.6965 C.3     253      M_A    0.0000
   2834 C          54.5346   41.0359   30.4568 C.3     253      M_A    0.0000
   2835 C          53.2132   39.7922   29.1353 C.2     253      M_A    0.0000
   2836 N          53.8747   37.9441   28.7295 N.3     253      M_A    0.0000
   2837 O          51.6393   40.3170   28.4734 O.2     253      M_A    0.0000
   2838 H          54.2822   44.1079   29.6214 H       253      M_A    0.0000
   2839 H          54.0904   43.6812   32.1253 H       253      M_A    0.0000
   2840 H          54.6099   40.2924   31.8687 H       253      M_A    0.0000
   2841 H          55.3350   37.7101   28.7409 H       253      M_A    0.0000
   2842 H          53.1031   37.1956   27.7208 H       253      M_A    0.0000
   2843 C          56.6943   41.0762   29.5881 C.3     254      M_A    0.0000
   2844 C          57.9916   39.4440   30.3876 C.3     254      M_A    0.0000
   2845 C          58.9989   38.3466   28.7082 C.2     254      M_A    0.0000
   2846 N          60.2845   36.9080   29.2519 N.3     254      M_A    0.0000
   2847 O          58.7077   38.6408   26.9706 O.2     254      M_A    0.0000
   2848 H          56.6193   41.0538   27.9953 H       254      M_A    0.0000
   2849 H          57.3053   42.4999   29.9768 H       254      M_A    0.0000
   2850 H          57.1159   38.3707   31.1832 H       254      M_A    0.0000
   2851 H          60.9653   37.0410   30.5581 H       254      M_A    0.0000
   2852 H          61.0785   36.3140   28.1612 H       254      M_A    0.0000
   2853 C          59.5966   40.2513   31.8683 C.3     255      M_A    0.0000
   2854 C          60.6773   38.6302   32.9594 C.3     255      M_A    0.0000
   2855 C          60.7935   36.7764   31.6988 C.2     255      M_A    0.0000
   2856 N          61.8228   35.2475   32.4866 N.3     255      M_A    0.0000
   2857 O          60.0184   36.5717   30.1025 O.2     255      M_A    0.0000
   2858 H          60.5974   41.2134   31.0835 H       255      M_A    0.0000
   2859 H          58.8181   41.1833   32.9059 H       255      M_A    0.0000
   2860 H          59.8944   38.2345   34.2944 H       255      M_A    0.0000
   2861 H          62.9091   35.5587   33.4408 H       255      M_A    0.0000
   2862 H          62.0533   34.1013   31.5888 H       255      M_A    0.0000
   2863 C          62.8213   39.2824   33.5906 C.3     256      M_A    0.0000
   2864 C          63.3089   38.7616   35.7066 C.3     256      M_A    0.0000
   2865 C          63.0610   36.5572   36.0507 C.2     256      M_A    0.0000
   2866 N          63.5562   35.8971   37.8774 N.3     256      M_A    0.0000
   2867 O          62.4339   35.3956   34.8471 O.2     256      M_A    0.0000
   2868 H          63.8787   38.6704   32.5657 H       256      M_A    0.0000
   2869 H          62.8836   40.8658   33.3894 H       256      M_A    0.0000
   2870 H          62.3113   39.5024   36.7105 H       256      M_A    0.0000
   2871 H          64.5781   36.6507   38.6357 H       256      M_A    0.0000
   2872 H          63.5674   34.4329   38.0473 H       256      M_A    0.0000
   2873 C          65.4692   39.4058   36.2882 C.3     257      M_A    0.0000
   2874 C          65.5223   41.2105   37.6023 C.3     257      M_A    0.0000
   2875 C          65.6442   40.6075   39.7611 C.2     257      M_A    0.0000
   2876 N          65.8026   42.1088   41.0797 N.3     257      M_A    0.0000
   2877 O          65.5737   38.9267   40.3619 O.2     257      M_A    0.0000
   2878 H          66.2274   38.1660   36.9448 H       257      M_A    0.0000
   2879 H          66.2300   39.7064   34.9162 H       257      M_A    0.0000
   2880 H          64.1833   42.0655   37.4348 H       257      M_A    0.0000
   2881 H          66.4376   43.3661   40.6291 H       257      M_A    0.0000
   2882 H          66.0648   41.7103   42.4745 H       257      M_A    0.0000
   2883 C          67.3027   42.6172   37.0813 C.3     258      M_A    0.0000
   2884 C          68.9147   42.6004   38.6265 C.3     258      M_A    0.0000
   2885 C          69.5889   40.4988   39.0364 C.2     258      M_A    0.0000
   2886 N          71.1075   40.3054   40.3303 N.3     258      M_A    0.0000
   2887 O          68.8548   39.0307   38.3317 O.2     258      M_A    0.0000
   2888 H          67.8588   42.2452   35.6337 H       258      M_A    0.0000
   2889 H          66.6877   44.0855   36.9491 H       258      M_A    0.0000
   2890 H          68.3729   43.1911   40.0083 H       258      M_A    0.0000
   2891 H          72.0687   41.4232   40.4466 H       258      M_A    0.0000
   2892 H          71.6681   38.9482   40.4605 H       258      M_A    0.0000
   2893 C          70.7413   43.8989   37.9960 C.3     259      M_A    0.0000
   2894 C          71.0950   45.6341   39.3563 C.3     259      M_A    0.0000
   2895 C          70.7904   45.0298   41.4967 C.2     259      M_A    0.0000
   2896 N          71.1663   46.4448   42.8658 N.3     259      M_A    0.0000
   2897 O          70.2159   43.4273   42.0380 O.2     259      M_A    0.0000
   2898 H          72.0289   42.9666   37.8697 H       259      M_A    0.0000
   2899 H          70.4310   44.4180   36.5176 H       259      M_A    0.0000
   2900 H          70.0527   46.8060   39.0529 H       259      M_A    0.0000
   2901 H          72.1543   47.4926   42.5297 H       259      M_A    0.0000
   2902 H          71.1431   45.9981   44.2704 H       259      M_A    0.0000
   2903 C          73.2279   46.5293   39.0923 C.3     260      M_A    0.0000
   2904 C          73.2446   48.7622   39.0664 C.3     260      M_A    0.0000
   2905 C          75.0543   49.5471   40.1381 C.2     260      M_A    0.0000
   2906 N          75.2824   51.5384   40.1239 N.3     260      M_A    0.0000
   2907 O          76.2473   48.5416   41.0079 O.2     260      M_A    0.0000
   2908 H          74.1882   45.9376   40.2195 H       260      M_A    0.0000
   2909 H          73.7813   45.9626   37.7052 H       260      M_A    0.0000
   2910 H          71.9665   49.3413   39.8298 H       260      M_A    0.0000
   2911 H          74.7125   52.2956   38.9885 H       260      M_A    0.0000
   2912 H          76.5579   52.0401   40.6666 H       260      M_A    0.0000
   2913 C          73.1902   49.6101   36.8989 C.3     261      M_A    0.0000
   2914 C          71.5033   51.0326   36.5559 C.3     261      M_A    0.0000
   2915 C          72.2872   53.0849   36.0946 C.2     261      M_A    0.0000
   2916 N          70.9055   54.4700   35.6587 N.3     261      M_A    0.0000
   2917 O          74.0100   53.5557   36.1269 O.2     261      M_A    0.0000
   2918 H          74.6032   50.2652   36.5564 H       261      M_A    0.0000
   2919 H          73.0469   48.3487   35.9295 H       261      M_A    0.0000
   2920 H          70.6050   51.1642   37.8702 H       261      M_A    0.0000
   2921 H          69.6308   54.0168   35.0612 H       261      M_A    0.0000
   2922 H          71.4253   55.7638   35.1803 H       261      M_A    0.0000
   2923 C          70.1019   50.3258   34.8364 C.3     262      M_A    0.0000
   2924 C          67.9380   50.6593   35.2757 C.3     262      M_A    0.0000
   2925 C          67.2437   52.5970   34.3799 C.2     262      M_A    0.0000
   2926 N          65.2934   53.0083   34.5924 N.3     262      M_A    0.0000
   2927 O          68.2953   53.7770   33.5476 O.2     262      M_A    0.0000
   2928 H          70.5496   51.0240   33.4744 H       262      M_A    0.0000
   2929 H          70.3858   48.7660   34.6417 H       262      M_A    0.0000
   2930 H          67.6954   50.7638   36.8512 H       262      M_A    0.0000
   2931 H          64.3526   51.8736   34.7133 H       262      M_A    0.0000
   2932 H          64.8032   54.1846   33.8515 H       262      M_A    0.0000
   2933 C          66.6097   48.9151   34.4924 C.3     263      M_A    0.0000
   2934 C          65.6694   49.3492   32.5141 C.3     263      M_A    0.0000
   2935 C          67.2403   49.8452   30.9891 C.2     263      M_A    0.0000
   2936 N          66.5775   50.1647   29.1246 N.3     263      M_A    0.0000
   2937 O          68.9865   50.0048   31.3303 O.2     263      M_A    0.0000
   2938 H          67.4702   47.5728   34.4634 H       263      M_A    0.0000
   2939 H          65.4784   48.6850   35.5964 H       263      M_A    0.0000
   2940 H          64.7066   50.6197   32.6177 H       263      M_A    0.0000
   2941 H          65.3303   49.4899   28.7047 H       263      M_A    0.0000
   2942 H          67.6190   50.3097   28.0914 H       263      M_A    0.0000
   2943 C          64.3755   47.5694   31.7537 C.3     264      M_A    0.0000
   2944 C          62.6957   48.2097   30.4289 C.2     264      M_A    0.0000
   2945 C          63.3435   48.2035   28.2796 C.2     264      M_A    0.0000
   2946 N          61.9246   48.6573   26.9384 N.3     264      M_A    0.0000
   2947 O          65.0025   47.8662   27.7096 O.2     264      M_A    0.0000
   2948 H          65.3211   46.4989   31.0445 H       264      M_A    0.0000
   2949 H          63.7990   46.8478   33.0569 H       264      M_A    0.0000
   2950 H          62.2480   49.7038   30.7737 H       264      M_A    0.0000
   2951 H          60.5186   48.3569   27.2849 H       264      M_A    0.0000
   2952 H          62.2997   48.4766   25.5243 H       264      M_A    0.0000
   2953 C          63.3839   42.6277   13.9835 C.2     265      M_A    0.0000
   2954 C          63.2624   41.1034   14.1216 C.3     265      M_A    0.0000
   2955 C          63.3905   40.5153   15.1082 C.2     265      M_A    0.0000
   2956 N          63.4344   39.4883   15.0171 N.3     265      M_A    0.0000
   2957 O          63.4726   40.8945   15.9420 O.2     265      M_A    0.0000
   2958 H          62.6329   43.1558   14.5829 H       265      M_A    0.0000
   2959 H          63.2016   42.9263   12.9424 H       265      M_A    0.0000
   2960 H          63.9300   40.9528   13.6657 H       265      M_A    0.0000
   2961 H          63.0776   39.1657   14.4269 H       265      M_A    0.0000
   2962 H          63.4241   39.0991   15.6685 H       265      M_A    0.0000
   2963 C          62.3193   40.6762   13.5178 C.3     266      M_A    0.0000
   2964 C          61.3693   40.5983   14.1605 C.3     266      M_A    0.0000
   2965 C          60.9307   41.6482   14.3632 C.2     266      M_A    0.0000
   2966 N          60.0444   41.6710   14.8913 N.3     266      M_A    0.0000
   2967 O          61.3200   42.4413   14.1079 O.2     266      M_A    0.0000
   2968 H          62.1996   41.1326   12.8459 H       266      M_A    0.0000
   2969 H          62.5378   39.9309   13.2474 H       266      M_A    0.0000
   2970 H          61.5426   40.2667   14.8928 H       266      M_A    0.0000
   2971 H          59.5801   41.0699   14.8377 H       266      M_A    0.0000
   2972 H          59.7092   42.3499   14.9432 H       266      M_A    0.0000
   2973 C          60.5358   39.9058   13.6483 C.3     267      M_A    0.0000
   2974 C          59.4728   40.1226   14.0286 C.3     267      M_A    0.0000
   2975 C          58.7645   39.2462   13.7716 C.2     267      M_A    0.0000
   2976 N          57.7976   39.3319   14.1219 N.3     267      M_A    0.0000
   2977 O          58.9963   38.5088   13.2733 O.2     267      M_A    0.0000
   2978 H          60.5908   39.9760   12.8321 H       267      M_A    0.0000
   2979 H          60.7438   39.1294   13.8218 H       267      M_A    0.0000
   2980 H          59.1663   40.7922   13.6626 H       267      M_A    0.0000
   2981 H          57.6804   39.7418   14.7528 H       267      M_A    0.0000
   2982 H          57.3602   38.7179   14.0349 H       267      M_A    0.0000
   2983 C          59.4508   40.3249   15.2097 C.3     268      M_A    0.0000
   2984 C          58.4664   40.7982   15.5684 C.3     268      M_A    0.0000
   2985 C          58.2025   40.4272   16.6307 C.2     268      M_A    0.0000
   2986 N          57.3581   40.8417   17.0549 N.3     268      M_A    0.0000
   2987 O          58.6727   39.7910   17.0997 O.2     268      M_A    0.0000
   2988 H          59.6187   39.6261   15.6066 H       268      M_A    0.0000
   2989 H          60.0800   40.8303   15.3681 H       268      M_A    0.0000
   2990 H          57.8445   40.5778   15.0774 H       268      M_A    0.0000
   2991 H          57.1546   41.5421   16.8364 H       268      M_A    0.0000
   2992 H          57.2376   40.6698   17.7842 H       268      M_A    0.0000
   2993 C          58.5146   41.9958   15.5606 C.3     269      M_A    0.0000
   2994 C          58.0580   42.4721   16.5019 C.3     269      M_A    0.0000
   2995 C          58.4830   41.9741   17.4543 C.2     269      M_A    0.0000
   2996 N          58.1665   42.3752   18.3509 N.3     269      M_A    0.0000
   2997 O          59.0531   41.2526   17.4632 O.2     269      M_A    0.0000
   2998 H          59.2912   42.2339   15.4411 H       269      M_A    0.0000
   2999 H          58.0998   42.2381   14.8931 H       269      M_A    0.0000
   3000 H          57.2435   42.3589   16.5166 H       269      M_A    0.0000
   3001 H          57.9669   43.1098   18.3639 H       269      M_A    0.0000
   3002 H          58.5155   42.1115   18.9711 H       269      M_A    0.0000
   3003 C          58.2504   43.6544   16.5456 C.3     270      M_A    0.0000
   3004 C          57.6416   44.1808   17.3665 C.3     270      M_A    0.0000
   3005 C          58.0656   43.9262   18.4110 C.2     270      M_A    0.0000
   3006 N          57.6111   44.3983   19.2082 N.3     270      M_A    0.0000
   3007 O          58.7492   43.3327   18.5730 O.2     270      M_A    0.0000
   3008 H          59.0558   43.7942   16.6225 H       270      M_A    0.0000
   3009 H          58.0405   43.9489   15.8071 H       270      M_A    0.0000
   3010 H          56.8607   43.9232   17.3567 H       270      M_A    0.0000
   3011 H          57.2872   45.0763   19.0854 H       270      M_A    0.0000
   3012 H          57.9477   44.3047   19.8819 H       270      M_A    0.0000
   3013 C          57.6224   45.3701   17.2187 C.3     271      M_A    0.0000
   3014 C          56.5996   45.7657   16.8737 C.3     271      M_A    0.0000
   3015 C          55.8139   45.6412   17.7120 C.2     271      M_A    0.0000
   3016 N          54.8752   46.0184   17.5081 N.3     271      M_A    0.0000
   3017 O          55.9628   45.2228   18.5173 O.2     271      M_A    0.0000
   3018 H          57.8748   45.7323   17.9109 H       271      M_A    0.0000
   3019 H          58.1952   45.5408   16.6538 H       271      M_A    0.0000
   3020 H          56.3279   45.3373   16.2264 H       271      M_A    0.0000
   3021 H          54.8216   46.6017   17.0216 H       271      M_A    0.0000
   3022 H          54.3878   46.0211   18.0898 H       271      M_A    0.0000
   3023 C          56.6524   46.9153   16.5387 C.3     272      M_A    0.0000
   3024 C          56.0835   47.1276   15.5625 C.3     272      M_A    0.0000
   3025 C          56.7028   46.7821   14.6499 C.2     272      M_A    0.0000
   3026 N          56.2458   46.8867   13.7306 N.3     272      M_A    0.0000
   3027 O          57.5587   46.4478   14.6887 O.2     272      M_A    0.0000
   3028 H          56.3908   47.3888   17.1563 H       272      M_A    0.0000
   3029 H          57.4501   47.0905   16.4432 H       272      M_A    0.0000
   3030 H          55.9561   47.9351   15.4724 H       272      M_A    0.0000
   3031 H          55.4852   46.8622   13.7041 H       272      M_A    0.0000
   3032 H          56.6119   46.5752   13.1434 H       272      M_A    0.0000
   3033 C          55.0090   46.5969   15.5442 C.3     273      M_A    0.0000
   3034 C          54.1892   47.2533   15.0766 C.3     273      M_A    0.0000
   3035 C          53.3636   46.5956   14.6058 C.2     273      M_A    0.0000
   3036 N          52.5580   47.1023   14.2068 N.3     273      M_A    0.0000
   3037 O          53.3878   45.6781   14.5492 O.2     273      M_A    0.0000
   3038 H          55.0732   45.8701   15.1677 H       273      M_A    0.0000
   3039 H          54.8223   46.4288   16.3272 H       273      M_A    0.0000
   3040 H          54.4998   47.7157   14.4716 H       273      M_A    0.0000
   3041 H          52.3798   47.7809   14.5025 H       273      M_A    0.0000
   3042 H          51.9754   46.6706   13.9831 H       273      M_A    0.0000
   3043 C          53.7013   48.0006   15.8766 C.3     274      M_A    0.0000
   3044 C          53.5822   49.0727   15.4788 C.3     274      M_A    0.0000
   3045 C          52.8727   49.6803   16.1594 C.2     274      M_A    0.0000
   3046 N          52.7478   50.6729   15.9065 N.3     274      M_A    0.0000
   3047 O          52.4116   49.3403   16.8788 O.2     274      M_A    0.0000
   3048 H          52.9884   47.6885   16.1380 H       274      M_A    0.0000
   3049 H          54.2014   47.9968   16.5295 H       274      M_A    0.0000
   3050 H          53.2456   49.0663   14.7285 H       274      M_A    0.0000
   3051 H          53.3168   51.0240   15.5423 H       274      M_A    0.0000
   3052 H          52.3586   51.0932   16.4043 H       274      M_A    0.0000
   3053 C          54.6352   49.6379   15.3882 C.3     275      M_A    0.0000
   3054 C          54.7060   50.5705   16.0567 C.2     275      M_A    0.0000
   3055 C          55.1456   50.2956   17.0896 C.2     275      M_A    0.0000
   3056 N          55.2940   51.0836   17.7392 N.3     275      M_A    0.0000
   3057 O          55.3472   49.4425   17.3674 O.2     275      M_A    0.0000
   3058 H          55.2415   49.1050   15.5385 H       275      M_A    0.0000
   3059 H          54.7142   49.8514   14.5981 H       275      M_A    0.0000
   3060 H          53.9587   50.8862   16.1918 H       275      M_A    0.0000
   3061 H          55.4250   51.7725   17.4425 H       275      M_A    0.0000
   3062 H          55.6676   50.9175   18.3786 H       275      M_A    0.0000
   3063 C          58.5163   52.7790   43.0323 C.2     276      M_A    0.0000
   3064 C          57.9596   53.1636   42.1268 C.3     276      M_A    0.0000
   3065 C          57.4975   54.1786   42.3452 C.2     276      M_A    0.0000
   3066 N          57.0200   54.6234   41.5682 N.3     276      M_A    0.0000
   3067 O          57.5121   54.5935   43.1485 O.2     276      M_A    0.0000
   3068 H          58.9586   53.3560   43.3831 H       276      M_A    0.0000
   3069 H          59.0392   52.2030   42.8115 H       276      M_A    0.0000
   3070 H          57.3520   52.6657   41.9345 H       276      M_A    0.0000
   3071 H          57.2477   54.4589   40.8743 H       276      M_A    0.0000
   3072 H          56.7977   55.3263   41.6843 H       276      M_A    0.0000
   3073 C          58.6568   53.2415   41.1798 C.3     277      M_A    0.0000
   3074 C          59.1198   52.2527   40.8869 C.3     277      M_A    0.0000
   3075 C          58.3658   51.6094   40.3309 C.2     277      M_A    0.0000
   3076 N          58.7128   50.7210   39.9844 N.3     277      M_A    0.0000
   3077 O          57.4976   51.8246   40.1984 O.2     277      M_A    0.0000
   3078 H          58.2425   53.5734   40.5716 H       277      M_A    0.0000
   3079 H          59.2362   53.7730   41.3688 H       277      M_A    0.0000
   3080 H          59.3426   51.8378   41.5443 H       277      M_A    0.0000
   3081 H          59.4414   50.6674   39.8207 H       277      M_A    0.0000
   3082 H          58.2467   50.3415   39.5422 H       277      M_A    0.0000
   3083 C          60.0837   52.3954   40.2239 C.3     278      M_A    0.0000
   3084 C          60.9801   51.8294   40.6162 C.3     278      M_A    0.0000
   3085 C          60.7723   50.7122   40.6258 C.2     278      M_A    0.0000
   3086 N          61.5444   50.1214   40.9165 N.3     278      M_A    0.0000
   3087 O          59.9805   50.3296   40.4151 O.2     278      M_A    0.0000
   3088 H          59.9121   52.1982   39.4600 H       278      M_A    0.0000
   3089 H          60.2385   53.1890   40.2180 H       278      M_A    0.0000
   3090 H          61.1401   52.0448   41.3791 H       278      M_A    0.0000
   3091 H          62.2410   50.3701   40.8010 H       278      M_A    0.0000
   3092 H          61.4388   49.3871   40.8351 H       278      M_A    0.0000
   3093 C          61.9508   52.0462   39.9839 C.3     279      M_A    0.0000
   3094 C          62.7462   51.2522   40.1052 C.3     279      M_A    0.0000
   3095 C          62.2888   50.2151   40.0239 C.2     279      M_A    0.0000
   3096 N          62.9412   49.4393   40.0703 N.3     279      M_A    0.0000
   3097 O          61.4049   50.0425   39.9420 O.2     279      M_A    0.0000
   3098 H          61.7454   52.1529   39.2105 H       279      M_A    0.0000
   3099 H          62.2317   52.7604   40.2387 H       279      M_A    0.0000
   3100 H          63.0871   51.3015   40.8369 H       279      M_A    0.0000
   3101 H          63.6439   49.5560   39.8400 H       279      M_A    0.0000
   3102 H          62.6543   48.7658   39.9252 H       279      M_A    0.0000
   3103 C          63.6099   51.3673   39.3117 C.3     280      M_A    0.0000
   3104 C          64.6262   51.5238   39.7814 C.3     280      M_A    0.0000
   3105 C          64.6833   52.5458   40.2751 C.2     280      M_A    0.0000
   3106 N          65.5463   52.7512   40.7677 N.3     280      M_A    0.0000
   3107 O          64.0351   53.1754   40.2415 O.2     280      M_A    0.0000
   3108 H          63.6009   50.7308   38.8152 H       280      M_A    0.0000
   3109 H          63.4145   52.0060   38.8560 H       280      M_A    0.0000
   3110 H          65.2056   51.5029   39.2177 H       280      M_A    0.0000
   3111 H          65.9347   52.1777   41.0517 H       280      M_A    0.0000
   3112 H          65.5488   53.3813   41.1676 H       280      M_A    0.0000
   3113 C          64.8811   50.6875   40.5717 C.3     281      M_A    0.0000
   3114 C          64.3812   49.6985   40.3483 C.3     281      M_A    0.0000
   3115 C          64.7365   49.2898   39.3492 C.2     281      M_A    0.0000
   3116 N          64.3762   48.3769   39.0916 N.3     281      M_A    0.0000
   3117 O          65.2885   49.7222   38.7782 O.2     281      M_A    0.0000
   3118 H          65.6828   50.6144   40.6318 H       281      M_A    0.0000
   3119 H          64.6304   50.9687   41.2872 H       281      M_A    0.0000
   3120 H          63.5799   49.7918   40.2920 H       281      M_A    0.0000
   3121 H          64.1867   47.9052   39.6413 H       281      M_A    0.0000
   3122 H          64.6791   48.0691   38.4830 H       281      M_A    0.0000
   3123 C          64.5790   48.9025   41.1946 C.3     282      M_A    0.0000
   3124 C          63.7010   48.2118   41.3683 C.3     282      M_A    0.0000
   3125 C          62.9556   48.6876   42.0820 C.2     282      M_A    0.0000
   3126 N          62.1085   48.1565   42.2552 N.3     282      M_A    0.0000
   3127 O          63.0748   49.4768   42.5069 O.2     282      M_A    0.0000
   3128 H          65.2548   48.4954   41.0236 H       282      M_A    0.0000
   3129 H          64.7379   49.3224   41.8671 H       282      M_A    0.0000
   3130 H          63.9463   47.5217   41.7110 H       282      M_A    0.0000
   3131 H          61.8676   47.6931   41.7188 H       282      M_A    0.0000
   3132 H          61.5807   48.5079   42.6486 H       282      M_A    0.0000
   3133 C          63.1585   47.9255   40.3620 C.3     283      M_A    0.0000
   3134 C          63.6435   48.3847   39.4500 C.3     283      M_A    0.0000
   3135 C          64.6199   47.8555   39.2095 C.2     283      M_A    0.0000
   3136 N          65.0992   48.1706   38.3725 N.3     283      M_A    0.0000
   3137 O          64.9947   47.2039   39.7123 O.2     283      M_A    0.0000
   3138 H          63.1096   47.1216   40.3061 H       283      M_A    0.0000
   3139 H          62.3973   48.1890   40.4327 H       283      M_A    0.0000
   3140 H          63.8246   49.1611   39.5855 H       283      M_A    0.0000
   3141 H          64.6871   48.4622   37.8196 H       283      M_A    0.0000
   3142 H          65.6892   47.7637   38.1645 H       283      M_A    0.0000
   3143 C          62.9340   48.3533   38.5094 C.3     284      M_A    0.0000
   3144 C          62.3911   49.3285   38.3301 C.3     284      M_A    0.0000
   3145 C          62.4580   49.9956   39.2476 C.2     284      M_A    0.0000
   3146 N          62.0399   50.9157   39.1566 N.3     284      M_A    0.0000
   3147 O          62.8323   49.7583   40.0358 O.2     284      M_A    0.0000
   3148 H          63.3592   48.1207   37.8638 H       284      M_A    0.0000
   3149 H          62.4009   47.7613   38.6481 H       284      M_A    0.0000
   3150 H          61.6053   49.1949   38.1939 H       284      M_A    0.0000
   3151 H          62.0082   51.2221   38.4743 H       284      M_A    0.0000
   3152 H          62.1637   51.3852   39.7234 H       284      M_A    0.0000
   3153 C          62.8129   49.9027   37.3913 C.3     285      M_A    0.0000
   3154 C          62.5428   51.0004   37.3841 C.3     285      M_A    0.0000
   3155 C          62.9758   51.5227   38.2958 C.2     285      M_A    0.0000
   3156 N          62.8248   52.5249   38.3444 N.3     285      M_A    0.0000
   3157 O          63.4166   51.1109   38.9694 O.2     285      M_A    0.0000
   3158 H          63.6106   49.7872   37.3458 H       285      M_A    0.0000
   3159 H          62.4990   49.5364   36.7424 H       285      M_A    0.0000
   3160 H          61.7405   51.0954   37.4183 H       285      M_A    0.0000
   3161 H          62.7461   52.9007   37.7017 H       285      M_A    0.0000
   3162 H          63.1859   52.8806   38.8922 H       285      M_A    0.0000
   3163 C          62.9145   51.5404   36.4047 C.3     286      M_A    0.0000
   3164 C          62.2025   51.4213   35.5348 C.3     286      M_A    0.0000
   3165 C          62.5794   51.9970   34.6304 C.2     286      M_A    0.0000
   3166 N          62.0260   51.9041   33.7850 N.3     286      M_A    0.0000
   3167 O          63.3089   52.5314   34.6223 O.2     286      M_A    0.0000
   3168 H          63.0634   52.3165   36.5696 H       286      M_A    0.0000
   3169 H          63.6305   51.2114   36.2231 H       286      M_A    0.0000
   3170 H          61.4757   51.7240   35.7193 H       286      M_A    0.0000
   3171 H          61.6333   51.2740   33.6888 H       286      M_A    0.0000
   3172 H          62.3216   52.2055   33.1696 H       286      M_A    0.0000
   3173 C          62.0435   50.2898   35.2457 C.3     287      M_A    0.0000
   3174 C          62.7276   49.5876   35.8086 C.3     287      M_A    0.0000
   3175 C          62.1816   49.1209   36.6892 C.2     287      M_A    0.0000
   3176 N          62.7068   48.4356   37.2222 N.3     287      M_A    0.0000
   3177 O          61.3407   49.3294   36.9481 O.2     287      M_A    0.0000
   3178 H          61.2656   50.0975   35.3438 H       287      M_A    0.0000
   3179 H          62.1860   50.2373   34.4515 H       287      M_A    0.0000
   3180 H          63.3604   49.9899   36.1114 H       287      M_A    0.0000
   3181 H          63.2425   48.0500   36.8689 H       287      M_A    0.0000
   3182 H          62.3204   48.0634   37.7409 H       287      M_A    0.0000
   3183 C          63.1572   48.7380   35.1137 C.3     288      M_A    0.0000
   3184 C          62.8220   47.7027   35.4195 C.3     288      M_A    0.0000
   3185 C          61.9898   47.3363   34.7378 C.2     288      M_A    0.0000
   3186 N          61.6620   46.3913   34.9087 N.3     288      M_A    0.0000
   3187 O          61.6003   47.8259   34.0849 O.2     288      M_A    0.0000
   3188 H          62.9690   48.9025   34.3461 H       288      M_A    0.0000
   3189 H          63.9625   48.7932   35.1608 H       288      M_A    0.0000
   3190 H          62.5230   47.7115   36.1708 H       288      M_A    0.0000
   3191 H          62.1421   45.9009   35.2079 H       288      M_A    0.0000
   3192 H          61.1829   46.1188   34.4056 H       288      M_A    0.0000
   3193 C          63.7114   46.9294   35.4093 C.3     289      M_A    0.0000
   3194 C          63.7554   46.3160   34.4608 C.3     289      M_A    0.0000
   3195 C          64.8035   45.9076   34.2993 C.2     289      M_A    0.0000
   3196 N          64.9225   45.3007   33.4949 N.3     289      M_A    0.0000
   3197 O          65.5205   46.0990   34.8161 O.2     289      M_A    0.0000
   3198 H          64.4040   47.3197   35.5496 H       289      M_A    0.0000
   3199 H          63.5972   46.4453   36.0468 H       289      M_A    0.0000
   3200 H          63.5806   46.7744   33.8180 H       289      M_A    0.0000
   3201 H          64.3294   44.9100   33.2579 H       289      M_A    0.0000
   3202 H          65.5844   44.9603   33.4411 H       289      M_A    0.0000
   3203 C          62.9817   45.4270   34.4734 C.3     290      M_A    0.0000
   3204 C          62.4660   45.3015   35.4715 C.3     290      M_A    0.0000
   3205 C          61.7599   46.1703   35.6666 C.2     290      M_A    0.0000
   3206 N          61.2147   46.1137   36.5205 N.3     290      M_A    0.0000
   3207 O          61.6700   46.8957   35.1344 O.2     290      M_A    0.0000
   3208 H          62.4539   45.5259   33.8706 H       290      M_A    0.0000
   3209 H          63.4012   44.7597   34.2930 H       290      M_A    0.0000
   3210 H          63.0073   45.2996   36.0723 H       290      M_A    0.0000
   3211 H          61.0539   45.4344   36.7912 H       290      M_A    0.0000
   3212 H          60.6869   46.6347   36.6029 H       290      M_A    0.0000
   3213 C          61.8718   44.2858   35.5371 C.3     291      M_A    0.0000
   3214 C          61.0234   44.2191   34.7929 C.3     291      M_A    0.0000
   3215 C          61.3569   44.5972   33.7744 C.2     291      M_A    0.0000
   3216 N          60.6710   44.5257   33.0300 N.3     291      M_A    0.0000
   3217 O          62.1638   44.9639   33.5956 O.2     291      M_A    0.0000
   3218 H          62.3889   43.6704   35.4623 H       291      M_A    0.0000
   3219 H          61.5826   44.2414   36.2909 H       291      M_A    0.0000
   3220 H          60.4048   44.6852   35.0252 H       291      M_A    0.0000
   3221 H          60.1561   43.9842   33.0765 H       291      M_A    0.0000
   3222 H          60.9187   44.6871   32.3449 H       291      M_A    0.0000
   3223 C          60.6104   43.1200   34.6914 C.3     292      M_A    0.0000
   3224 C          61.4283   42.3414   34.6390 C.3     292      M_A    0.0000
   3225 C          61.8833   42.1726   35.6665 C.2     292      M_A    0.0000
   3226 N          62.5936   41.4500   35.7222 N.3     292      M_A    0.0000
   3227 O          61.6721   42.6403   36.4110 O.2     292      M_A    0.0000
   3228 H          60.0923   42.9744   35.2933 H       292      M_A    0.0000
   3229 H          60.1708   43.1055   34.0129 H       292      M_A    0.0000
   3230 H          62.0267   42.5906   34.1555 H       292      M_A    0.0000
   3231 H          62.5607   40.8855   35.2316 H       292      M_A    0.0000
   3232 H          62.8253   41.2760   36.4099 H       292      M_A    0.0000
   3233 C          61.0365   41.3176   34.2063 C.3     293      M_A    0.0000
   3234 C          61.7487   40.4583   34.3856 C.3     293      M_A    0.0000
   3235 C          62.7449   40.8418   34.7753 C.2     293      M_A    0.0000
   3236 N          63.4298   40.1318   35.0129 N.3     293      M_A    0.0000
   3237 O          62.9656   41.7140   34.8664 O.2     293      M_A    0.0000
   3238 H          60.3010   41.1678   34.5035 H       293      M_A    0.0000
   3239 H          60.9351   41.4318   33.4123 H       293      M_A    0.0000
   3240 H          61.9020   40.0676   33.6943 H       293      M_A    0.0000
   3241 H          63.1799   39.4591   35.2264 H       293      M_A    0.0000
   3242 H          64.0464   40.3778   35.3537 H       293      M_A    0.0000
   3243 C          61.3064   39.6679   35.1398 C.3     294      M_A    0.0000
   3244 C          61.7873   39.7121   36.1619 C.3     294      M_A    0.0000
   3245 C          61.2851   38.9787   36.8699 C.2     294      M_A    0.0000
   3246 N          61.6879   38.9148   37.7990 N.3     294      M_A    0.0000
   3247 O          60.5595   38.4776   36.6694 O.2     294      M_A    0.0000
   3248 H          60.5050   39.7574   35.1784 H       294      M_A    0.0000
   3249 H          61.4321   38.9422   34.8061 H       294      M_A    0.0000
   3250 H          61.6993   40.4480   36.4853 H       294      M_A    0.0000
   3251 H          62.4157   39.0712   37.8787 H       294      M_A    0.0000
   3252 H          61.4185   38.3700   38.2321 H       294      M_A    0.0000
   3253 C          62.9437   39.4895   36.1159 C.3     295      M_A    0.0000
   3254 C          63.2826   38.7401   36.8915 C.3     295      M_A    0.0000
   3255 C          64.3712   38.4597   36.7248 C.2     295      M_A    0.0000
   3256 N          64.7747   37.8280   37.4088 N.3     295      M_A    0.0000
   3257 O          64.8793   38.7407   36.0316 O.2     295      M_A    0.0000
   3258 H          63.1404   39.2600   35.3674 H       295      M_A    0.0000
   3259 H          63.3151   40.1978   36.2349 H       295      M_A    0.0000
   3260 H          62.8530   38.0575   36.8334 H       295      M_A    0.0000
   3261 H          64.4931   37.8336   38.1024 H       295      M_A    0.0000
   3262 H          65.5106   37.7171   37.3526 H       295      M_A    0.0000
   3263 C          63.1419   39.1460   37.9890 C.3     296      M_A    0.0000
   3264 C          64.0372   38.9535   38.6517 C.2     296      M_A    0.0000
   3265 C          64.7597   39.8296   38.6088 C.2     296      M_A    0.0000
   3266 N          65.5706   39.7641   39.2153 N.3     296      M_A    0.0000
   3267 O          64.6698   40.5508   38.0707 O.2     296      M_A    0.0000
   3268 H          62.9501   39.9297   37.9597 H       296      M_A    0.0000
   3269 H          62.4910   38.7701   38.2872 H       296      M_A    0.0000
   3270 H          64.4433   38.3019   38.3979 H       296      M_A    0.0000
   3271 H          65.5084   39.3624   39.8440 H       296      M_A    0.0000
   3272 H          65.9949   40.3766   39.2560 H       296      M_A    0.0000
   3273 C          78.5753   67.9853   23.5087 C.2     297      M_A    0.0000
   3274 C          78.5273   66.6116   23.9793 C.3     297      M_A    0.0000
   3275 C          79.8459   66.1813   24.4365 C.2     297      M_A    0.0000
   3276 N          79.9079   64.9814   24.9437 N.3     297      M_A    0.0000
   3277 O          80.8185   66.8125   24.3568 O.2     297      M_A    0.0000
   3278 H          78.0820   68.6338   24.1510 H       297      M_A    0.0000
   3279 H          78.0877   68.0651   22.5944 H       297      M_A    0.0000
   3280 H          78.2516   65.9714   23.2085 H       297      M_A    0.0000
   3281 H          79.1166   64.6242   25.3585 H       297      M_A    0.0000
   3282 H          80.7434   64.7440   25.3502 H       297      M_A    0.0000
   3283 C          77.5176   66.4283   25.0934 C.3     298      M_A    0.0000
   3284 C          76.9151   65.1063   25.1055 C.3     298      M_A    0.0000
   3285 C          76.7187   64.6463   26.4778 C.2     298      M_A    0.0000
   3286 N          76.1221   63.4944   26.6110 N.3     298      M_A    0.0000
   3287 O          77.0717   65.2138   27.4286 O.2     298      M_A    0.0000
   3288 H          77.9646   66.6601   26.0006 H       298      M_A    0.0000
   3289 H          76.7859   67.1510   24.9442 H       298      M_A    0.0000
   3290 H          77.5398   64.4165   24.6428 H       298      M_A    0.0000
   3291 H          75.5105   63.2191   25.9211 H       298      M_A    0.0000
   3292 H          75.8877   63.2484   27.5079 H       298      M_A    0.0000
   3293 C          75.5940   65.0777   24.3652 C.3     299      M_A    0.0000
   3294 C          74.4684   64.7408   25.2198 C.3     299      M_A    0.0000
   3295 C          74.2800   65.7642   26.2446 C.2     299      M_A    0.0000
   3296 N          73.2532   65.5984   27.0313 N.3     299      M_A    0.0000
   3297 O          74.9804   66.6762   26.4133 O.2     299      M_A    0.0000
   3298 H          75.4555   65.9838   23.8791 H       299      M_A    0.0000
   3299 H          75.6966   64.3656   23.6153 H       299      M_A    0.0000
   3300 H          74.6430   63.8449   25.7168 H       299      M_A    0.0000
   3301 H          72.4933   65.1181   26.6882 H       299      M_A    0.0000
   3302 H          73.0613   66.3273   27.6244 H       299      M_A    0.0000
   3303 C          73.1872   64.5698   24.4299 C.3     300      M_A    0.0000
   3304 C          72.0053   64.4875   25.2708 C.3     300      M_A    0.0000
   3305 C          71.6778   65.7996   25.8224 C.2     300      M_A    0.0000
   3306 N          70.5925   65.8582   26.5431 N.3     300      M_A    0.0000
   3307 O          72.3172   66.7601   25.6838 O.2     300      M_A    0.0000
   3308 H          73.1138   65.3318   23.7296 H       300      M_A    0.0000
   3309 H          73.2973   63.6921   23.8845 H       300      M_A    0.0000
   3310 H          72.1751   63.8550   26.0778 H       300      M_A    0.0000
   3311 H          69.8898   65.2284   26.3548 H       300      M_A    0.0000
   3312 H          70.3141   66.7377   26.8055 H       300      M_A    0.0000
   3313 C          70.8105   63.9390   24.5185 C.3     301      M_A    0.0000
   3314 C          69.6372   63.7679   25.3581 C.3     301      M_A    0.0000
   3315 C          68.4206   63.8085   24.5511 C.2     301      M_A    0.0000
   3316 N          67.3052   63.5991   25.1937 N.3     301      M_A    0.0000
   3317 O          68.3831   64.0329   23.4114 O.2     301      M_A    0.0000
   3318 H          70.6167   64.5441   23.6983 H       301      M_A    0.0000
   3319 H          71.1073   63.0215   24.1312 H       301      M_A    0.0000
   3320 H          69.5669   64.5414   26.0487 H       301      M_A    0.0000
   3321 H          67.3356   63.0570   25.9880 H       301      M_A    0.0000
   3322 H          66.5215   63.5083   24.6484 H       301      M_A    0.0000
   3323 C          69.6845   62.4731   26.1427 C.3     302      M_A    0.0000
   3324 C          68.3915   62.0829   26.6781 C.3     302      M_A    0.0000
   3325 C          67.9105   63.0799   27.6309 C.2     302      M_A    0.0000
   3326 N          66.7240   62.8652   28.1275 N.3     302      M_A    0.0000
   3327 O          68.5105   64.0113   27.9818 O.2     302      M_A    0.0000
   3328 H          70.1001   61.7299   25.5498 H       302      M_A    0.0000
   3329 H          70.3584   62.6280   26.9184 H       302      M_A    0.0000
   3330 H          68.4667   61.1840   27.1944 H       302      M_A    0.0000
   3331 H          66.0948   62.3666   27.5971 H       302      M_A    0.0000
   3332 H          66.3604   63.5759   28.6591 H       302      M_A    0.0000
   3333 C          67.3612   61.8844   25.5856 C.3     303      M_A    0.0000
   3334 C          67.6403   60.7365   24.7400 C.3     303      M_A    0.0000
   3335 C          69.0541   60.7018   24.3751 C.2     303      M_A    0.0000
   3336 N          69.4334   59.6736   23.6682 N.3     303      M_A    0.0000
   3337 O          69.8334   61.5202   24.6464 O.2     303      M_A    0.0000
   3338 H          66.4170   61.8324   26.0125 H       303      M_A    0.0000
   3339 H          67.3688   62.7547   25.0176 H       303      M_A    0.0000
   3340 H          67.1015   60.7970   23.8533 H       303      M_A    0.0000
   3341 H          68.9435   58.8514   23.7665 H       303      M_A    0.0000
   3342 H          70.3787   59.5896   23.5298 H       303      M_A    0.0000
   3343 C          67.2548   59.4326   25.4075 C.3     304      M_A    0.0000
   3344 C          68.0097   58.2938   24.9134 C.3     304      M_A    0.0000
   3345 C          67.2179   57.0710   25.0181 C.2     304      M_A    0.0000
   3346 N          67.7733   55.9918   24.5410 N.3     304      M_A    0.0000
   3347 O          66.1660   56.9972   25.5067 O.2     304      M_A    0.0000
   3348 H          67.3389   59.5380   26.4362 H       304      M_A    0.0000
   3349 H          66.2421   59.2973   25.2174 H       304      M_A    0.0000
   3350 H          68.8659   58.1483   25.4843 H       304      M_A    0.0000
   3351 H          68.4130   56.0891   23.8289 H       304      M_A    0.0000
   3352 H          67.2102   55.2164   24.5018 H       304      M_A    0.0000
   3353 C          68.4579   58.4887   23.4797 C.3     305      M_A    0.0000
   3354 C          67.6384   57.7656   22.5225 C.2     305      M_A    0.0000
   3355 C          66.5384   58.6046   22.0543 C.2     305      M_A    0.0000
   3356 N          65.7727   58.0790   21.1388 N.3     305      M_A    0.0000
   3357 O          66.2956   59.6694   22.4518 O.2     305      M_A    0.0000
   3358 H          68.4970   59.5039   23.2694 H       305      M_A    0.0000
   3359 H          69.4397   58.1509   23.4339 H       305      M_A    0.0000
   3360 H          67.2113   56.9287   22.9667 H       305      M_A    0.0000
   3361 H          66.1562   57.4200   20.5519 H       305      M_A    0.0000
   3362 H          65.1260   58.6695   20.7478 H       305      M_A    0.0000
   3363 C          19.8016   89.1187    6.9222 C.2     306      M_A    0.0000
   3364 C          21.1607   88.5142    6.7942 C.3     306      M_A    0.0000
   3365 C          22.2169   89.5789    6.8509 C.2     306      M_A    0.0000
   3366 N          23.4847   89.1463    6.8134 N.3     306      M_A    0.0000
   3367 O          22.0047   90.7531    6.9006 O.2     306      M_A    0.0000
   3368 H          19.5915   89.4211    7.9227 H       306      M_A    0.0000
   3369 H          19.0556   88.3966    6.6725 H       306      M_A    0.0000
   3370 H          21.2654   88.0237    5.8513 H       306      M_A    0.0000
   3371 H          23.6778   88.2419    7.1631 H       306      M_A    0.0000
   3372 H          24.1752   89.8313    6.9725 H       306      M_A    0.0000
   3373 C          21.4317   87.4495    7.8967 C.3     307      M_A    0.0000
   3374 C          20.3497   86.4263    8.0023 C.3     307      M_A    0.0000
   3375 C          20.5002   85.3895    6.9277 C.2     307      M_A    0.0000
   3376 N          19.6211   84.3787    6.9643 N.3     307      M_A    0.0000
   3377 O          21.3138   85.4207    6.0541 O.2     307      M_A    0.0000
   3378 H          22.3863   87.0055    7.7283 H       307      M_A    0.0000
   3379 H          21.5175   87.9866    8.8157 H       307      M_A    0.0000
   3380 H          19.3918   86.8782    7.8648 H       307      M_A    0.0000
   3381 H          19.2370   84.1281    7.8402 H       307      M_A    0.0000
   3382 H          19.7938   83.6387    6.3368 H       307      M_A    0.0000
   3383 C          20.3341   85.7355    9.3970 C.3     308      M_A    0.0000
   3384 C          21.0983   84.4534    9.4247 C.3     308      M_A    0.0000
   3385 C          22.4230   84.6162    8.7384 C.2     308      M_A    0.0000
   3386 N          23.2276   83.5448    8.7603 N.3     308      M_A    0.0000
   3387 O          22.7839   85.6025    8.1698 O.2     308      M_A    0.0000
   3388 H          20.6819   86.4239   10.1331 H       308      M_A    0.0000
   3389 H          19.3075   85.5541    9.6287 H       308      M_A    0.0000
   3390 H          20.5685   83.6898    8.8985 H       308      M_A    0.0000
   3391 H          23.1382   82.9115    9.5143 H       308      M_A    0.0000
   3392 H          24.1407   83.6886    8.4185 H       308      M_A    0.0000
   3393 C          21.3214   83.9385   10.8765 C.3     309      M_A    0.0000
   3394 C          22.1939   82.7289   10.9420 C.3     309      M_A    0.0000
   3395 C          23.0902   82.7918   12.1441 C.2     309      M_A    0.0000
   3396 N          23.8742   81.7236   12.3446 N.3     309      M_A    0.0000
   3397 O          23.1644   83.7165   12.8962 O.2     309      M_A    0.0000
   3398 H          21.6972   84.7351   11.4772 H       309      M_A    0.0000
   3399 H          20.3528   83.7116   11.2649 H       309      M_A    0.0000
   3400 H          22.8286   82.6777   10.0846 H       309      M_A    0.0000
   3401 H          23.5614   80.8478   12.0088 H       309      M_A    0.0000
   3402 H          24.3711   81.7114   13.1956 H       309      M_A    0.0000
   3403 C          21.3643   81.4123   10.9766 C.3     310      M_A    0.0000
   3404 C          21.7203   80.5252   12.1234 C.3     310      M_A    0.0000
   3405 C          22.4782   81.2933   13.1665 C.2     310      M_A    0.0000
   3406 N          22.7936   80.6139   14.2777 N.3     310      M_A    0.0000
   3407 O          22.8289   82.4300   13.0610 O.2     310      M_A    0.0000
   3408 H          20.3256   81.6521   10.9644 H       310      M_A    0.0000
   3409 H          21.5596   80.9121   10.0535 H       310      M_A    0.0000
   3410 H          22.3569   79.7312   11.7996 H       310      M_A    0.0000
   3411 H          22.2071   79.8648   14.5469 H       310      M_A    0.0000
   3412 H          23.1818   81.1477   15.0096 H       310      M_A    0.0000
   3413 C          20.4631   79.8706   12.7666 C.3     311      M_A    0.0000
   3414 C          20.4133   80.0301   14.2502 C.3     311      M_A    0.0000
   3415 C          21.4219   81.0446   14.7038 C.2     311      M_A    0.0000
   3416 N          21.4223   81.3217   16.0149 N.3     311      M_A    0.0000
   3417 O          22.2166   81.5855   13.9952 O.2     311      M_A    0.0000
   3418 H          19.5876   80.2539   12.2940 H       311      M_A    0.0000
   3419 H          20.5027   78.8343   12.5117 H       311      M_A    0.0000
   3420 H          20.6593   79.1106   14.7345 H       311      M_A    0.0000
   3421 H          20.5757   81.2119   16.5136 H       311      M_A    0.0000
   3422 H          21.9974   82.0720   16.2933 H       311      M_A    0.0000
   3423 C          18.9967   80.4435   14.7452 C.3     312      M_A    0.0000
   3424 C          19.0254   81.2296   16.0141 C.3     312      M_A    0.0000
   3425 C          20.1581   82.2140   15.9969 C.2     312      M_A    0.0000
   3426 N          20.2428   83.0253   17.0601 N.3     312      M_A    0.0000
   3427 O          20.9784   82.3002   15.1332 O.2     312      M_A    0.0000
   3428 H          18.4904   80.9638   13.9643 H       312      M_A    0.0000
   3429 H          18.4543   79.5351   14.8904 H       312      M_A    0.0000
   3430 H          19.1873   80.5855   16.8504 H       312      M_A    0.0000
   3431 H          19.4102   83.2410   17.5478 H       312      M_A    0.0000
   3432 H          20.9085   83.7490   16.9939 H       312      M_A    0.0000
   3433 C          17.6848   81.9793   16.2663 C.3     313      M_A    0.0000
   3434 C          17.4288   82.2524   17.7115 C.3     313      M_A    0.0000
   3435 C          16.1618   83.0387   17.8813 C.2     313      M_A    0.0000
   3436 N          15.7930   83.2859   19.1457 N.3     313      M_A    0.0000
   3437 O          15.4953   83.4662   16.9874 O.2     313      M_A    0.0000
   3438 H          17.6664   82.8708   15.6818 H       313      M_A    0.0000
   3439 H          16.9145   81.3546   15.8705 H       313      M_A    0.0000
   3440 H          18.2170   82.8413   18.1270 H       313      M_A    0.0000
   3441 H          16.0728   82.6457   19.8453 H       313      M_A    0.0000
   3442 H          14.9032   83.6940   19.2597 H       313      M_A    0.0000
   3443 C          17.3470   80.9419   18.5473 C.3     314      M_A    0.0000
   3444 C          16.8786   81.1674   19.9467 C.3     314      M_A    0.0000
   3445 C          15.9456   82.3415   20.0059 C.2     314      M_A    0.0000
   3446 N          15.4062   82.5988   21.2053 N.3     314      M_A    0.0000
   3447 O          15.6813   83.0541   19.0848 O.2     314      M_A    0.0000
   3448 H          16.7385   80.2345   18.0314 H       314      M_A    0.0000
   3449 H          18.3322   80.5299   18.5537 H       314      M_A    0.0000
   3450 H          17.7034   81.3945   20.5860 H       314      M_A    0.0000
   3451 H          15.2892   81.8447   21.8340 H       314      M_A    0.0000
   3452 H          14.7038   83.2900   21.2190 H       314      M_A    0.0000
   3453 C          16.1751   79.9103   20.5361 C.3     315      M_A    0.0000
   3454 C          17.0945   79.0418   21.3293 C.3     315      M_A    0.0000
   3455 C          16.3113   78.1314   22.2295 C.2     315      M_A    0.0000
   3456 N          17.0314   77.2554   22.9436 N.3     315      M_A    0.0000
   3457 O          15.1249   78.1549   22.3640 O.2     315      M_A    0.0000
   3458 H          15.3265   80.2172   21.1040 H       315      M_A    0.0000
   3459 H          15.7876   79.3667   19.7026 H       315      M_A    0.0000
   3460 H          17.7212   79.6353   21.9583 H       315      M_A    0.0000
   3461 H          17.8987   76.9565   22.5748 H       315      M_A    0.0000
   3462 H          16.5132   76.5797   23.4398 H       315      M_A    0.0000
   3463 C          18.0304   78.1966   20.4170 C.3     316      M_A    0.0000
   3464 C          17.3230   77.0760   19.7294 C.3     316      M_A    0.0000
   3465 C          16.1870   76.5755   20.5728 C.2     316      M_A    0.0000
   3466 N          15.4347   75.6107   20.0259 N.3     316      M_A    0.0000
   3467 O          15.9341   76.9541   21.6768 O.2     316      M_A    0.0000
   3468 H          18.5228   78.8421   19.7259 H       316      M_A    0.0000
   3469 H          18.7967   77.8097   21.0523 H       316      M_A    0.0000
   3470 H          17.9845   76.2510   19.5795 H       316      M_A    0.0000
   3471 H          15.3692   75.5747   19.0400 H       316      M_A    0.0000
   3472 H          14.6204   75.3684   20.5255 H       316      M_A    0.0000
   3473 C          16.7893   77.4953   18.3287 C.3     317      M_A    0.0000
   3474 C          16.5485   76.3343   17.4215 C.3     317      M_A    0.0000
   3475 C          15.8379   76.7787   16.1766 C.2     317      M_A    0.0000
   3476 N          15.6272   75.8297   15.2541 N.3     317      M_A    0.0000
   3477 O          15.4385   77.8857   15.9733 O.2     317      M_A    0.0000
   3478 H          15.9160   78.0944   18.4512 H       317      M_A    0.0000
   3479 H          17.5293   78.1402   17.9081 H       317      M_A    0.0000
   3480 H          15.9206   75.6121   17.8956 H       317      M_A    0.0000
   3481 H          16.2587   75.0699   15.2161 H       317      M_A    0.0000
   3482 H          15.2719   76.1442   14.3903 H       317      M_A    0.0000
   3483 C          17.8714   75.6094   17.0380 C.3     318      M_A    0.0000
   3484 C          18.1385   75.6152   15.5692 C.2     318      M_A    0.0000
   3485 C          18.9577   76.8138   15.1888 C.2     318      M_A    0.0000
   3486 N          19.3179   76.8898   13.9003 N.3     318      M_A    0.0000
   3487 O          19.2779   77.6900   15.9344 O.2     318      M_A    0.0000
   3488 H          18.6772   76.0339   17.5923 H       318      M_A    0.0000
   3489 H          17.7735   74.6051   17.3876 H       318      M_A    0.0000
   3490 H          17.2235   75.6790   15.0221 H       318      M_A    0.0000
   3491 H          19.4151   76.0461   13.3941 H       318      M_A    0.0000
   3492 H          19.9543   77.6080   13.6757 H       318      M_A    0.0000
   3493 C          51.7713   40.9505   28.4643 C.2     319      M_A    0.0000
   3494 C          51.0135   39.7675   27.8448 C.3     319      M_A    0.0000
   3495 C          49.7537   39.4388   28.6738 C.2     319      M_A    0.0000
   3496 N          48.9515   38.4353   28.1750 N.3     319      M_A    0.0000
   3497 O          49.4442   39.9814   29.7313 O.2     319      M_A    0.0000
   3498 H          52.1059   41.6672   27.7048 H       319      M_A    0.0000
   3499 H          52.6825   40.5935   28.9626 H       319      M_A    0.0000
   3500 H          51.6400   38.8654   27.8458 H       319      M_A    0.0000
   3501 H          48.9523   38.2773   27.1704 H       319      M_A    0.0000
   3502 H          48.0647   38.3049   28.6481 H       319      M_A    0.0000
   3503 C          50.5984   40.0507   26.3249 C.3     320      M_A    0.0000
   3504 C          50.5583   38.7800   25.4640 C.3     320      M_A    0.0000
   3505 C          49.5374   38.9362   24.3170 C.2     320      M_A    0.0000
   3506 N          49.4622   37.8821   23.4322 N.3     320      M_A    0.0000
   3507 O          48.7924   39.9004   24.1626 O.2     320      M_A    0.0000
   3508 H          49.6437   40.5898   26.3063 H       320      M_A    0.0000
   3509 H          51.3461   40.7503   25.9277 H       320      M_A    0.0000
   3510 H          50.2348   37.9184   26.0634 H       320      M_A    0.0000
   3511 H          50.2928   37.3114   23.2968 H       320      M_A    0.0000
   3512 H          48.8862   38.0360   22.6126 H       320      M_A    0.0000
   3513 C          51.9960   38.4197   24.8591 C.3     321      M_A    0.0000
   3514 C          51.9672   37.2071   23.9176 C.3     321      M_A    0.0000
   3515 C          51.8404   37.6658   22.4493 C.2     321      M_A    0.0000
   3516 N          51.8742   36.6649   21.5024 N.3     321      M_A    0.0000
   3517 O          51.6902   38.8290   22.0845 O.2     321      M_A    0.0000
   3518 H          52.4152   39.3081   24.3721 H       321      M_A    0.0000
   3519 H          52.6475   38.2126   25.7186 H       321      M_A    0.0000
   3520 H          51.0948   36.5746   24.1303 H       321      M_A    0.0000
   3521 H          52.3833   35.8133   21.7248 H       321      M_A    0.0000
   3522 H          51.9171   36.9732   20.5378 H       321      M_A    0.0000
   3523 C          53.2671   36.2878   24.0835 C.3     322      M_A    0.0000
   3524 C          53.4291   35.2628   22.9519 C.3     322      M_A    0.0000
   3525 C          53.0813   35.9014   21.5904 C.2     322      M_A    0.0000
   3526 N          53.2566   35.0950   20.4865 N.3     322      M_A    0.0000
   3527 O          52.6469   37.0398   21.4361 O.2     322      M_A    0.0000
   3528 H          54.1510   36.9283   24.1873 H       322      M_A    0.0000
   3529 H          53.1564   35.7704   25.0460 H       322      M_A    0.0000
   3530 H          52.7396   34.4197   23.0938 H       322      M_A    0.0000
   3531 H          53.9587   34.3612   20.5372 H       322      M_A    0.0000
   3532 H          53.1491   35.5506   19.5875 H       322      M_A    0.0000
   3533 C          54.9097   34.6565   22.8989 C.3     323      M_A    0.0000
   3534 C          54.9830   33.3072   22.1700 C.3     323      M_A    0.0000
   3535 C          54.5186   32.1652   23.0988 C.2     323      M_A    0.0000
   3536 N          54.4745   30.9100   22.5315 N.3     323      M_A    0.0000
   3537 O          54.2196   32.2969   24.2828 O.2     323      M_A    0.0000
   3538 H          55.5875   35.3981   22.4597 H       323      M_A    0.0000
   3539 H          55.2302   34.5376   23.9427 H       323      M_A    0.0000
   3540 H          56.0181   33.0813   21.8803 H       323      M_A    0.0000
   3541 H          54.3165   30.8436   21.5291 H       323      M_A    0.0000
   3542 H          54.0527   30.1848   23.1002 H       323      M_A    0.0000
   3543 C          54.1069   33.3007   20.8303 C.3     324      M_A    0.0000
   3544 C          53.2465   32.0380   20.6787 C.3     324      M_A    0.0000
   3545 C          53.2039   31.2506   22.0055 C.2     324      M_A    0.0000
   3546 N          52.4025   30.1293   22.0129 N.3     324      M_A    0.0000
   3547 O          53.8399   31.5374   23.0163 O.2     324      M_A    0.0000
   3548 H          53.5043   34.2158   20.7890 H       324      M_A    0.0000
   3549 H          54.8192   33.3723   19.9974 H       324      M_A    0.0000
   3550 H          53.6769   31.3667   19.9234 H       324      M_A    0.0000
   3551 H          51.6019   30.1096   21.3862 H       324      M_A    0.0000
   3552 H          52.2760   29.6849   22.9150 H       324      M_A    0.0000
   3553 C          51.7552   32.3811   20.2087 C.3     325      M_A    0.0000
   3554 C          50.7422   31.2852   20.5696 C.3     325      M_A    0.0000
   3555 C          50.0679   31.5969   21.9226 C.2     325      M_A    0.0000
   3556 N          49.0850   30.7165   22.3207 N.3     325      M_A    0.0000
   3557 O          50.3610   32.5372   22.6564 O.2     325      M_A    0.0000
   3558 H          51.4653   33.3580   20.6135 H       325      M_A    0.0000
   3559 H          51.7985   32.5084   19.1187 H       325      M_A    0.0000
   3560 H          51.2464   30.3157   20.6808 H       325      M_A    0.0000
   3561 H          48.5684   30.2189   21.6000 H       325      M_A    0.0000
   3562 H          48.5580   30.9880   23.1428 H       325      M_A    0.0000
   3563 C          49.6229   31.1070   19.4392 C.3     326      M_A    0.0000
   3564 C          48.5537   32.2707   19.7548 C.3     326      M_A    0.0000
   3565 C          49.3112   33.6298   20.2057 C.2     326      M_A    0.0000
   3566 N          48.4609   34.7748   20.4474 N.3     326      M_A    0.0000
   3567 O          50.5828   33.7442   20.3832 O.2     326      M_A    0.0000
   3568 H          50.1212   31.2465   18.4113 H       326      M_A    0.0000
   3569 H          49.0919   30.0848   19.3961 H       326      M_A    0.0000
   3570 H          47.8682   31.9640   20.6294 H       326      M_A    0.0000
   3571 H          47.5347   34.8322   19.9203 H       326      M_A    0.0000
   3572 H          48.9645   35.6968   20.6144 H       326      M_A    0.0000
   3573 C          47.5613   32.5882   18.4368 C.3     327      M_A    0.0000
   3574 C          46.9141   34.0636   18.4730 C.3     327      M_A    0.0000
   3575 C          46.8503   34.6917   16.9811 C.2     327      M_A    0.0000
   3576 N          46.2203   35.9891   16.8699 N.3     327      M_A    0.0000
   3577 O          47.3348   34.1369   15.9233 O.2     327      M_A    0.0000
   3578 H          48.1495   32.3991   17.4659 H       327      M_A    0.0000
   3579 H          46.7285   31.7916   18.4613 H       327      M_A    0.0000
   3580 H          47.5628   34.7744   19.1077 H       327      M_A    0.0000
   3581 H          45.4746   36.2481   17.5882 H       327      M_A    0.0000
   3582 H          46.0608   36.3414   15.8790 H       327      M_A    0.0000
   3583 C          45.3766   34.0603   19.1504 C.3     328      M_A    0.0000
   3584 C          44.5528   35.4137   18.8566 C.3     328      M_A    0.0000
   3585 C          45.5665   36.6568   18.6295 C.2     328      M_A    0.0000
   3586 N          44.9492   37.9185   18.2841 N.3     328      M_A    0.0000
   3587 O          46.8477   36.6001   18.7595 O.2     328      M_A    0.0000
   3588 H          44.8088   33.1243   18.7956 H       328      M_A    0.0000
   3589 H          45.5250   33.9276   20.2857 H       328      M_A    0.0000
   3590 H          43.8868   35.6856   19.7573 H       328      M_A    0.0000
   3591 H          44.0129   37.8957   17.7723 H       328      M_A    0.0000
   3592 H          45.6171   38.6989   18.0074 H       328      M_A    0.0000
   3593 C          43.5420   35.2588   17.5235 C.3     329      M_A    0.0000
   3594 C          43.1583   36.6729   16.8527 C.3     329      M_A    0.0000
   3595 C          42.5141   36.4475   15.3835 C.2     329      M_A    0.0000
   3596 N          42.0592   37.6412   14.7049 N.3     329      M_A    0.0000
   3597 O          42.4093   35.3090   14.7882 O.2     329      M_A    0.0000
   3598 H          44.0228   34.5384   16.7657 H       329      M_A    0.0000
   3599 H          42.5899   34.7301   17.9009 H       329      M_A    0.0000
   3600 H          44.1004   37.3214   16.7089 H       329      M_A    0.0000
   3601 H          41.7462   38.4691   15.3013 H       329      M_A    0.0000
   3602 H          41.5196   37.4818   13.8021 H       329      M_A    0.0000
   3603 C          42.0927   37.5540   17.8071 C.3     330      M_A    0.0000
   3604 C          41.4946   38.8491   17.0575 C.3     330      M_A    0.0000
   3605 C          40.7019   38.4114   15.7143 C.2     330      M_A    0.0000
   3606 N          40.0539   39.4813   14.9879 N.3     330      M_A    0.0000
   3607 O          40.6368   37.2099   15.2518 O.2     330      M_A    0.0000
   3608 H          41.2621   36.8558   18.1906 H       330      M_A    0.0000
   3609 H          42.6878   37.8779   18.7396 H       330      M_A    0.0000
   3610 H          42.3447   39.5551   16.7291 H       330      M_A    0.0000
   3611 H          39.7366   40.3401   15.5364 H       330      M_A    0.0000
   3612 H          39.4268   39.1795   14.1833 H       330      M_A    0.0000
   3613 C          40.4721   39.7363   18.0526 C.3     331      M_A    0.0000
   3614 C          39.9554   41.1025   17.3720 C.3     331      M_A    0.0000
   3615 C          38.3537   41.2583   17.5576 C.2     331      M_A    0.0000
   3616 N          37.7768   42.4845   17.0515 N.3     331      M_A    0.0000
   3617 O          37.5806   40.3734   18.0878 O.2     331      M_A    0.0000
   3618 H          39.5997   39.0668   18.3920 H       331      M_A    0.0000
   3619 H          41.0760   39.9741   19.0052 H       331      M_A    0.0000
   3620 H          40.1612   41.0925   16.2378 H       331      M_A    0.0000
   3621 H          38.3951   43.3537   17.0182 H       331      M_A    0.0000
   3622 H          36.7524   42.6452   17.2891 H       331      M_A    0.0000
   3623 C          40.7308   42.4528   18.0031 C.3     332      M_A    0.0000
   3624 C          40.2948   43.8270   17.2832 C.3     332      M_A    0.0000
   3625 C          38.7206   44.1210   17.5280 C.2     332      M_A    0.0000
   3626 N          38.2213   45.3679   16.9911 N.3     332      M_A    0.0000
   3627 O          37.9040   43.3253   18.1296 O.2     332      M_A    0.0000
   3628 H          40.5611   42.4893   19.1408 H       332      M_A    0.0000
   3629 H          41.8601   42.2728   17.8584 H       332      M_A    0.0000
   3630 H          40.4477   43.7526   16.1430 H       332      M_A    0.0000
   3631 H          38.9051   46.1815   16.8927 H       332      M_A    0.0000
   3632 H          37.2249   45.6218   17.2636 H       332      M_A    0.0000
   3633 C          41.2033   45.1346   17.8195 C.3     333      M_A    0.0000
   3634 C          40.3059   46.3039   18.4709 C.3     333      M_A    0.0000
   3635 C          39.3830   45.7128   19.6638 C.2     333      M_A    0.0000
   3636 N          38.5816   46.6813   20.3795 N.3     333      M_A    0.0000
   3637 O          39.3002   44.4679   19.9878 O.2     333      M_A    0.0000
   3638 H          42.0150   44.7597   18.5439 H       333      M_A    0.0000
   3639 H          41.7653   45.5364   16.8968 H       333      M_A    0.0000
   3640 H          39.5908   46.7505   17.6848 H       333      M_A    0.0000
   3641 H          38.9358   47.6868   20.4298 H       333      M_A    0.0000
   3642 H          38.0786   46.3165   21.2430 H       333      M_A    0.0000
   3643 C          41.2464   47.5665   19.0575 C.3     334      M_A    0.0000
   3644 C          41.4005   47.5485   20.6615 C.3     334      M_A    0.0000
   3645 C          42.5727   46.5231   21.1072 C.2     334      M_A    0.0000
   3646 N          42.8591   46.4708   22.5241 N.3     334      M_A    0.0000
   3647 O          43.2279   45.7547   20.3060 O.2     334      M_A    0.0000
   3648 H          42.2671   47.5567   18.5261 H       334      M_A    0.0000
   3649 H          40.7257   48.5387   18.7222 H       334      M_A    0.0000
   3650 H          40.4273   47.1798   21.1573 H       334      M_A    0.0000
   3651 H          42.6655   47.3430   23.1078 H       334      M_A    0.0000
   3652 H          43.7123   45.8993   22.8018 H       334      M_A    0.0000
   3653 C          41.7221   49.0770   21.2803 C.3     335      M_A    0.0000
   3654 C          43.0882   49.1400   22.1326 C.3     335      M_A    0.0000
   3655 C          44.3604   49.3450   21.1508 C.2     335      M_A    0.0000
   3656 N          45.6431   49.4905   21.8034 N.3     335      M_A    0.0000
   3657 O          44.3065   49.3593   19.8630 O.2     335      M_A    0.0000
   3658 H          41.7142   49.8425   20.4211 H       335      M_A    0.0000
   3659 H          40.8253   49.3478   21.9520 H       335      M_A    0.0000
   3660 H          43.2583   48.1499   22.6981 H       335      M_A    0.0000
   3661 H          45.6612   49.8988   22.7893 H       335      M_A    0.0000
   3662 H          46.4559   49.7552   21.1701 H       335      M_A    0.0000
   3663 C          43.0580   50.3661   23.2809 C.3     336      M_A    0.0000
   3664 C          44.5205   50.9518   23.6198 C.3     336      M_A    0.0000
   3665 C          45.4228   51.0364   22.2770 C.2     336      M_A    0.0000
   3666 N          46.7381   51.6167   22.4370 N.3     336      M_A    0.0000
   3667 O          45.0633   50.6076   21.1157 O.2     336      M_A    0.0000
   3668 H          42.3328   51.1902   22.9355 H       336      M_A    0.0000
   3669 H          42.5872   49.9086   24.2284 H       336      M_A    0.0000
   3670 H          45.0754   50.2557   24.3522 H       336      M_A    0.0000
   3671 H          46.8808   52.3287   23.2190 H       336      M_A    0.0000
   3672 H          47.2777   51.7924   21.5372 H       336      M_A    0.0000
   3673 C          44.4403   52.4665   24.3422 C.3     337      M_A    0.0000
   3674 C          45.6620   53.4315   23.9263 C.3     337      M_A    0.0000
   3675 C          45.1325   54.9424   23.6790 C.2     337      M_A    0.0000
   3676 N          46.1492   55.9238   23.3696 N.3     337      M_A    0.0000
   3677 O          43.8970   55.3084   23.7131 O.2     337      M_A    0.0000
   3678 H          43.4178   52.9418   24.1123 H       337      M_A    0.0000
   3679 H          44.4534   52.2818   25.4800 H       337      M_A    0.0000
   3680 H          46.1383   53.0780   22.9378 H       337      M_A    0.0000
   3681 H          47.1349   55.7607   23.7448 H       337      M_A    0.0000
   3682 H          45.8201   56.9349   23.3371 H       337      M_A    0.0000
   3683 C          46.8786   53.4423   25.0849 C.3     338      M_A    0.0000
   3684 C          47.9159   54.6618   24.9020 C.3     338      M_A    0.0000
   3685 C          47.4958   55.9101   25.8453 C.2     338      M_A    0.0000
   3686 N          48.3932   57.0444   25.8262 N.3     338      M_A    0.0000
   3687 O          46.4306   55.9650   26.5692 O.2     338      M_A    0.0000
   3688 H          46.4032   53.4341   26.1330 H       338      M_A    0.0000
   3689 H          47.4309   52.4359   24.9814 H       338      M_A    0.0000
   3690 H          47.9023   55.0448   23.8148 H       338      M_A    0.0000
   3691 H          49.4224   56.8665   25.6069 H       338      M_A    0.0000
   3692 H          48.1897   57.8062   26.5403 H       338      M_A    0.0000
   3693 C          49.4951   54.2020   25.2444 C.3     339      M_A    0.0000
   3694 C          50.5938   55.2179   24.6464 C.3     339      M_A    0.0000
   3695 C          50.9636   56.3587   25.7356 C.2     339      M_A    0.0000
   3696 N          51.9965   57.2926   25.3441 N.3     339      M_A    0.0000
   3697 O          50.3938   56.4984   26.8834 O.2     339      M_A    0.0000
   3698 H          49.6106   54.0620   26.3808 H       339      M_A    0.0000
   3699 H          49.6332   53.1551   24.7821 H       339      M_A    0.0000
   3700 H          50.1787   55.7629   23.7192 H       339      M_A    0.0000
   3701 H          52.7359   56.9610   24.6496 H       339      M_A    0.0000
   3702 H          52.3306   57.9570   26.1048 H       339      M_A    0.0000
   3703 C          51.9928   54.4212   24.1663 C.3     340      M_A    0.0000
   3704 C          53.0330   55.3791   23.3936 C.3     340      M_A    0.0000
   3705 C          53.9014   56.2445   24.4525 C.2     340      M_A    0.0000
   3706 N          54.9253   57.0932   23.8835 N.3     340      M_A    0.0000
   3707 O          53.7248   56.2445   25.7294 O.2     340      M_A    0.0000
   3708 H          52.4720   53.9133   25.0811 H       340      M_A    0.0000
   3709 H          51.6542   53.5656   23.4720 H       340      M_A    0.0000
   3710 H          52.4705   56.1330   22.7272 H       340      M_A    0.0000
   3711 H          55.3589   56.8016   22.9529 H       340      M_A    0.0000
   3712 H          55.5794   57.5589   24.5813 H       340      M_A    0.0000
   3713 C          54.0659   54.5099   22.3933 C.3     341      M_A    0.0000
   3714 C          53.7985   54.7726   20.8261 C.3     341      M_A    0.0000
   3715 C          55.1447   55.3108   20.1033 C.2     341      M_A    0.0000
   3716 N          55.0540   55.5157   18.6743 N.3     341      M_A    0.0000
   3717 O          56.2498   55.5852   20.7075 O.2     341      M_A    0.0000
   3718 H          55.1555   54.7338   22.6883 H       341      M_A    0.0000
   3719 H          53.8942   53.3975   22.6416 H       341      M_A    0.0000
   3720 H          52.9943   55.5862   20.6837 H       341      M_A    0.0000
   3721 H          54.3568   54.9226   18.1255 H       341      M_A    0.0000
   3722 H          55.9692   55.7417   18.1813 H       341      M_A    0.0000
   3723 C          53.2496   53.3923   20.0410 C.3     342      M_A    0.0000
   3724 C          51.7139   53.5033   19.5654 C.3     342      M_A    0.0000
   3725 C          51.4300   52.4996   18.3259 C.2     342      M_A    0.0000
   3726 N          50.0638   52.4525   17.8532 N.3     342      M_A    0.0000
   3727 O          52.3234   51.7824   17.7350 O.2     342      M_A    0.0000
   3728 H          53.9556   53.1489   19.1654 H       342      M_A    0.0000
   3729 H          53.3682   52.5259   20.7919 H       342      M_A    0.0000
   3730 H          51.4818   54.5691   19.1926 H       342      M_A    0.0000
   3731 H          49.2844   52.6726   18.5483 H       342      M_A    0.0000
   3732 H          49.8508   51.7013   17.1307 H       342      M_A    0.0000
   3733 C          50.6420   53.1728   20.8162 C.3     343      M_A    0.0000
   3734 C          49.4664   52.1563   20.3901 C.2     343      M_A    0.0000
   3735 C          49.9017   50.6260   20.6949 C.2     343      M_A    0.0000
   3736 N          48.8992   49.6194   20.4226 N.3     343      M_A    0.0000
   3737 O          51.0593   50.2578   21.1263 O.2     343      M_A    0.0000
   3738 H          51.2309   52.7927   21.7289 H       343      M_A    0.0000
   3739 H          50.1920   54.1863   21.1311 H       343      M_A    0.0000
   3740 H          49.2615   52.2265   19.2579 H       343      M_A    0.0000
   3741 H          47.8724   49.9031   20.4880 H       343      M_A    0.0000
   3742 H          49.1357   48.6334   20.7442 H       343      M_A    0.0000
   3743 C          63.3381   64.2267   45.1733 C.2     344      M_A    0.0000
   3744 C          62.6048   62.8862   45.0222 C.3     344      M_A    0.0000
   3745 C          63.4378   61.7421   45.6381 C.2     344      M_A    0.0000
   3746 N          62.8491   60.4960   45.6246 N.3     344      M_A    0.0000
   3747 O          64.5685   61.8639   46.1021 O.2     344      M_A    0.0000
   3748 H          63.0456   64.7541   46.0891 H       344      M_A    0.0000
   3749 H          63.0727   64.8957   44.3437 H       344      M_A    0.0000
   3750 H          62.4633   62.6418   43.9608 H       344      M_A    0.0000
   3751 H          61.8335   60.4468   45.6376 H       344      M_A    0.0000
   3752 H          63.3390   59.7724   46.1382 H       344      M_A    0.0000
   3753 C          61.1529   62.9173   45.6959 C.3     345      M_A    0.0000
   3754 C          60.7004   63.6047   44.8470 C.3     345      M_A    0.0000
   3755 C          60.6038   62.9995   43.8287 C.2     345      M_A    0.0000
   3756 N          60.1557   63.5220   43.0210 N.3     345      M_A    0.0000
   3757 O          60.9098   62.1152   43.6916 O.2     345      M_A    0.0000
   3758 H          60.7505   62.1771   45.7516 H       345      M_A    0.0000
   3759 H          61.0593   63.2889   46.4497 H       345      M_A    0.0000
   3760 H          61.2100   64.2622   44.6943 H       345      M_A    0.0000
   3761 H          59.6411   64.0879   43.1887 H       345      M_A    0.0000
   3762 H          60.0049   63.0965   42.3843 H       345      M_A    0.0000
   3763 C          59.6006   64.0639   45.1618 C.3     346      M_A    0.0000
   3764 C          59.1124   64.7240   44.3111 C.3     346      M_A    0.0000
   3765 C          58.3623   64.0732   43.6582 C.2     346      M_A    0.0000
   3766 N          57.8346   64.5968   42.9007 N.3     346      M_A    0.0000
   3767 O          58.2249   63.1425   43.7554 O.2     346      M_A    0.0000
   3768 H          59.0944   63.4322   45.4019 H       346      M_A    0.0000
   3769 H          59.7295   64.5328   45.8538 H       346      M_A    0.0000
   3770 H          59.7062   65.0161   43.7844 H       346      M_A    0.0000
   3771 H          57.6966   65.3599   43.0085 H       346      M_A    0.0000
   3772 H          57.2741   64.1930   42.5375 H       346      M_A    0.0000
   3773 C          58.5203   65.7035   44.7689 C.3     347      M_A    0.0000
   3774 C          57.8450   66.2532   43.9692 C.3     347      M_A    0.0000
   3775 C          56.7547   65.7803   43.9495 C.2     347      M_A    0.0000
   3776 N          56.0600   66.2468   43.2968 N.3     347      M_A    0.0000
   3777 O          56.4814   65.0252   44.4491 O.2     347      M_A    0.0000
   3778 H          58.0779   65.4679   45.4483 H       347      M_A    0.0000
   3779 H          59.1183   66.2295   45.0532 H       347      M_A    0.0000
   3780 H          58.1674   66.1588   43.1931 H       347      M_A    0.0000
   3781 H          56.1584   67.0069   43.1368 H       347      M_A    0.0000
   3782 H          55.3221   65.9993   43.3546 H       347      M_A    0.0000
   3783 C          57.7671   67.4644   44.1846 C.3     348      M_A    0.0000
   3784 C          57.0293   68.0207   43.4470 C.3     348      M_A    0.0000
   3785 C          56.7309   69.0858   43.8818 C.2     348      M_A    0.0000
   3786 N          56.1110   69.6819   43.2599 N.3     348      M_A    0.0000
   3787 O          56.9871   69.4174   44.7296 O.2     348      M_A    0.0000
   3788 H          57.5601   67.5899   44.9935 H       348      M_A    0.0000
   3789 H          58.5503   67.7710   44.0961 H       348      M_A    0.0000
   3790 H          56.3116   67.5820   43.3583 H       348      M_A    0.0000
   3791 H          56.1547   69.5751   42.4854 H       348      M_A    0.0000
   3792 H          55.9945   70.4151   43.5008 H       348      M_A    0.0000
   3793 C          57.5143   68.1538   42.3216 C.3     349      M_A    0.0000
   3794 C          56.8607   68.8374   41.6123 C.3     349      M_A    0.0000
   3795 C          57.1264   69.9839   41.7788 C.2     349      M_A    0.0000
   3796 N          56.6252   70.6715   41.1446 N.3     349      M_A    0.0000
   3797 O          57.7234   70.3132   42.4342 O.2     349      M_A    0.0000
   3798 H          58.3064   68.4374   42.3925 H       349      M_A    0.0000
   3799 H          57.5756   67.3752   41.9971 H       349      M_A    0.0000
   3800 H          56.0385   68.7480   41.7890 H       349      M_A    0.0000
   3801 H          56.3981   70.4225   40.4378 H       349      M_A    0.0000
   3802 H          56.8693   71.4116   41.1873 H       349      M_A    0.0000
   3803 C          57.0100   68.5461   40.4239 C.3     350      M_A    0.0000
   3804 C          56.5784   69.3642   39.6875 C.3     350      M_A    0.0000
   3805 C          56.6114   70.4389   40.1941 C.2     350      M_A    0.0000
   3806 N          56.2921   71.2472   39.5850 N.3     350      M_A    0.0000
   3807 O          56.8774   70.6112   41.0851 O.2     350      M_A    0.0000
   3808 H          57.8263   68.3876   40.2773 H       350      M_A    0.0000
   3809 H          56.6073   67.8115   40.3083 H       350      M_A    0.0000
   3810 H          55.7681   69.2029   39.5067 H       350      M_A    0.0000
   3811 H          56.3749   71.1789   38.8094 H       350      M_A    0.0000
   3812 H          56.4039   71.9601   39.8822 H       350      M_A    0.0000
   3813 C          57.1902   69.3917   38.6178 C.3     351      M_A    0.0000
   3814 C          57.0146   70.3893   38.0081 C.3     351      M_A    0.0000
   3815 C          55.8584   70.6634   37.9824 C.2     351      M_A    0.0000
   3816 N          55.6100   71.5756   37.5004 N.3     351      M_A    0.0000
   3817 O          55.1652   70.1262   38.3365 O.2     351      M_A    0.0000
   3818 H          58.0098   69.2497   38.7629 H       351      M_A    0.0000
   3819 H          56.9159   68.7278   38.1715 H       351      M_A    0.0000
   3820 H          57.2620   70.2938   37.2050 H       351      M_A    0.0000
   3821 H          56.1463   72.1461   37.4930 H       351      M_A    0.0000
   3822 H          54.8662   71.8025   37.5674 H       351      M_A    0.0000
   3823 C          57.6540   71.3344   38.4745 C.3     352      M_A    0.0000
   3824 C          57.4620   72.3516   37.9034 C.3     352      M_A    0.0000
   3825 C          56.3354   72.4130   37.5298 C.2     352      M_A    0.0000
   3826 N          56.0555   73.3179   37.0512 N.3     352      M_A    0.0000
   3827 O          55.6976   71.7195   37.6122 O.2     352      M_A    0.0000
   3828 H          57.4907   71.3995   39.3003 H       352      M_A    0.0000
   3829 H          58.4699   71.1194   38.4163 H       352      M_A    0.0000
   3830 H          57.9517   72.4030   37.2157 H       352      M_A    0.0000
   3831 H          56.4369   73.9724   37.2493 H       352      M_A    0.0000
   3832 H          55.2952   73.3963   36.8930 H       352      M_A    0.0000
   3833 C          57.7193   73.3314   38.6057 C.3     353      M_A    0.0000
   3834 C          58.6694   73.9306   38.2366 C.3     353      M_A    0.0000
   3835 C          58.9904   74.7407   39.0448 C.2     353      M_A    0.0000
   3836 N          59.8693   75.2925   38.8227 N.3     353      M_A    0.0000
   3837 O          58.5153   74.9323   39.8398 O.2     353      M_A    0.0000
   3838 H          57.0352   73.8236   38.6571 H       353      M_A    0.0000
   3839 H          57.8500   73.0346   39.3868 H       353      M_A    0.0000
   3840 H          58.4966   74.3507   37.5232 H       353      M_A    0.0000
   3841 H          60.4133   74.9533   38.3731 H       353      M_A    0.0000
   3842 H          60.1330   75.7540   39.3942 H       353      M_A    0.0000
   3843 C          59.6213   73.1850   37.9968 C.3     354      M_A    0.0000
   3844 C          60.4244   73.1640   38.8642 C.3     354      M_A    0.0000
   3845 C          59.8969   73.2817   39.9228 C.2     354      M_A    0.0000
   3846 N          60.5364   73.2204   40.7675 N.3     354      M_A    0.0000
   3847 O          58.9741   73.4414   40.0547 O.2     354      M_A    0.0000
   3848 H          59.3308   72.4132   37.8159 H       354      M_A    0.0000
   3849 H          59.9732   73.4729   37.2837 H       354      M_A    0.0000
   3850 H          60.9635   73.8109   38.7854 H       354      M_A    0.0000
   3851 H          61.1917   72.7966   40.7033 H       354      M_A    0.0000
   3852 H          60.1799   73.2011   41.4615 H       354      M_A    0.0000
   3853 C          61.0946   72.1295   38.8483 C.3     355      M_A    0.0000
   3854 C          62.1430   72.2637   38.3186 C.3     355      M_A    0.0000
   3855 C          62.6418   73.2942   38.6381 C.2     355      M_A    0.0000
   3856 N          63.6133   73.4770   38.2521 N.3     355      M_A    0.0000
   3857 O          62.2318   73.9501   39.1822 O.2     355      M_A    0.0000
   3858 H          61.1734   71.8376   39.6366 H       355      M_A    0.0000
   3859 H          60.6326   71.5550   38.4340 H       355      M_A    0.0000
   3860 H          62.0504   72.2861   37.4783 H       355      M_A    0.0000
   3861 H          64.0656   72.8598   38.0856 H       355      M_A    0.0000
   3862 H          63.9784   74.1051   38.5372 H       355      M_A    0.0000
   3863 C          62.9119   71.3347   38.5740 C.3     356      M_A    0.0000
   3864 C          62.6299   70.3317   38.0153 C.3     356      M_A    0.0000
   3865 C          61.7168   69.7966   38.5562 C.2     356      M_A    0.0000
   3866 N          61.3580   68.9123   38.0918 N.3     356      M_A    0.0000
   3867 O          61.3150   70.0895   39.3606 O.2     356      M_A    0.0000
   3868 H          63.7039   71.5766   38.4095 H       356      M_A    0.0000
   3869 H          62.8742   71.2200   39.4111 H       356      M_A    0.0000
   3870 H          63.2784   69.7891   38.0339 H       356      M_A    0.0000
   3871 H          61.4495   68.8399   37.3175 H       356      M_A    0.0000
   3872 H          60.7010   68.6154   38.3906 H       356      M_A    0.0000
   3873 C          62.3532   70.5254   36.8298 C.3     357      M_A    0.0000
   3874 C          62.0677   69.5343   36.2518 C.3     357      M_A    0.0000
   3875 C          61.2802   68.9002   36.8766 C.2     357      M_A    0.0000
   3876 N          60.9238   68.0162   36.4099 N.3     357      M_A    0.0000
   3877 O          60.9755   69.1170   37.7453 O.2     357      M_A    0.0000
   3878 H          61.7443   71.1081   36.7784 H       357      M_A    0.0000
   3879 H          63.0392   70.8762   36.4812 H       357      M_A    0.0000
   3880 H          62.7494   69.0448   36.1474 H       357      M_A    0.0000
   3881 H          60.9105   67.9927   35.6274 H       357      M_A    0.0000
   3882 H          60.3382   67.6525   36.7758 H       357      M_A    0.0000
   3883 C          61.6141   69.7683   35.1298 C.3     358      M_A    0.0000
   3884 C          61.9259   68.9600   34.3251 C.3     358      M_A    0.0000
   3885 C          61.0764   68.1365   34.2116 C.2     358      M_A    0.0000
   3886 N          61.2458   67.3966   33.4699 N.3     358      M_A    0.0000
   3887 O          60.2922   68.0893   34.7382 O.2     358      M_A    0.0000
   3888 H          60.7759   69.8559   35.1818 H       358      M_A    0.0000
   3889 H          61.9127   70.5277   34.9077 H       358      M_A    0.0000
   3890 H          62.6285   68.5561   34.5670 H       358      M_A    0.0000
   3891 H          61.6882   67.5883   32.8529 H       358      M_A    0.0000
   3892 H          60.6480   66.9149   33.3293 H       358      M_A    0.0000
   3893 C          62.1596   69.4680   33.2266 C.3     359      M_A    0.0000
   3894 C          61.3940   69.1359   32.3892 C.3     359      M_A    0.0000
   3895 C          61.6117   68.0192   32.0454 C.2     359      M_A    0.0000
   3896 N          60.9381   67.6154   31.3317 N.3     359      M_A    0.0000
   3897 O          62.3370   67.4908   32.3442 O.2     359      M_A    0.0000
   3898 H          62.1925   70.3076   33.3103 H       359      M_A    0.0000
   3899 H          62.9420   69.2258   33.0159 H       359      M_A    0.0000
   3900 H          61.4743   69.6239   31.7031 H       359      M_A    0.0000
   3901 H          60.2054   67.8914   31.3195 H       359      M_A    0.0000
   3902 H          61.0226   66.8548   31.1786 H       359      M_A    0.0000
   3903 C          60.2248   69.2322   32.7677 C.3     360      M_A    0.0000
   3904 C          59.6282   70.0922   32.2180 C.2     360      M_A    0.0000
   3905 C          59.0860   69.6686   31.2488 C.2     360      M_A    0.0000
   3906 N          58.4801   70.3600   30.7185 N.3     360      M_A    0.0000
   3907 O          59.1736   68.7864   30.9196 O.2     360      M_A    0.0000
   3908 H          59.8446   68.4825   32.6881 H       360      M_A    0.0000
   3909 H          60.2574   69.3880   33.5983 H       360      M_A    0.0000
   3910 H          60.1557   70.7001   31.9581 H       360      M_A    0.0000
   3911 H          58.1573   70.9500   31.1196 H       360      M_A    0.0000
   3912 H          58.0498   70.0597   30.1408 H       360      M_A    0.0000
   3913 C          33.3279   49.1157    5.1008 C.2     361      M_A    0.0000
   3914 C          32.1399   48.5600    5.1284 C.3     361      M_A    0.0000
   3915 C          32.0815   47.6418    6.0732 C.2     361      M_A    0.0000
   3916 N          31.0347   47.1229    6.2203 N.3     361      M_A    0.0000
   3917 O          32.8901   47.3384    6.6692 O.2     361      M_A    0.0000
   3918 H          33.6838   49.2262    5.9604 H       361      M_A    0.0000
   3919 H          33.2708   49.9774    4.7339 H       361      M_A    0.0000
   3920 H          31.9602   48.1264    4.3159 H       361      M_A    0.0000
   3921 H          30.3222   47.5733    6.0100 H       361      M_A    0.0000
   3922 H          30.9678   46.5999    6.9073 H       361      M_A    0.0000
   3923 C          31.1475   49.4812    5.3210 C.3     362      M_A    0.0000
   3924 C          31.2632   50.1341    6.4529 C.3     362      M_A    0.0000
   3925 C          31.8909   51.2784    6.2638 C.2     362      M_A    0.0000
   3926 N          31.9941   51.9697    7.2115 N.3     362      M_A    0.0000
   3927 O          32.3106   51.5922    5.3546 O.2     362      M_A    0.0000
   3928 H          31.1162   50.0589    4.5841 H       362      M_A    0.0000
   3929 H          30.3399   49.0035    5.3070 H       362      M_A    0.0000
   3930 H          31.7743   49.6413    7.0665 H       362      M_A    0.0000
   3931 H          31.3895   51.9051    7.8320 H       362      M_A    0.0000
   3932 H          32.3093   52.7629    7.0655 H       362      M_A    0.0000
   3933 C          30.0485   50.3674    7.0366 C.3     363      M_A    0.0000
   3934 C          30.1169   51.1875    8.0581 C.3     363      M_A    0.0000
   3935 C          30.9812   52.1540    7.8172 C.2     363      M_A    0.0000
   3936 N          31.0734   52.9797    8.6517 N.3     363      M_A    0.0000
   3937 O          31.5893   52.2196    6.9645 O.2     363      M_A    0.0000
   3938 H          29.4462   50.6677    6.3849 H       363      M_A    0.0000
   3939 H          29.7275   49.5314    7.3170 H       363      M_A    0.0000
   3940 H          30.4194   50.7362    8.8232 H       363      M_A    0.0000
   3941 H          30.3801   53.1339    9.1521 H       363      M_A    0.0000
   3942 H          31.5587   53.6674    8.4480 H       363      M_A    0.0000
   3943 C          28.8981   51.7270    8.3648 C.3     364      M_A    0.0000
   3944 C          28.8852   52.3465    9.5211 C.3     364      M_A    0.0000
   3945 C          29.5247   53.4967    9.4359 C.2     364      M_A    0.0000
   3946 N          29.5195   54.1599   10.4089 N.3     364      M_A    0.0000
   3947 O          30.0407   53.8377    8.5882 O.2     364      M_A    0.0000
   3948 H          28.6232   52.2852    7.6644 H       364      M_A    0.0000
   3949 H          28.2904   51.0121    8.3768 H       364      M_A    0.0000
   3950 H          29.3278   51.8365   10.1728 H       364      M_A    0.0000
   3951 H          28.8504   54.0763   10.9567 H       364      M_A    0.0000
   3952 H          29.8452   54.9575   10.3217 H       364      M_A    0.0000
   3953 C          27.6125   52.5607    9.9736 C.3     365      M_A    0.0000
   3954 C          27.5224   53.5803   10.7942 C.3     365      M_A    0.0000
   3955 C          28.3245   54.5541   10.4105 C.2     365      M_A    0.0000
   3956 N          28.2744   55.5420   11.0494 N.3     365      M_A    0.0000
   3957 O          28.9999   54.4979    9.6093 O.2     365      M_A    0.0000
   3958 H          27.0355   52.6479    9.2407 H       365      M_A    0.0000
   3959 H          27.3537   51.7723   10.4117 H       365      M_A    0.0000
   3960 H          27.7898   53.3319   11.6587 H       365      M_A    0.0000
   3961 H          27.5287   55.7296   11.4538 H       365      M_A    0.0000
   3962 H          28.7195   56.2154   10.7358 H       365      M_A    0.0000
   3963 C          26.2415   54.0504   10.8888 C.3     366      M_A    0.0000
   3964 C          26.1811   55.3157   11.2300 C.3     366      M_A    0.0000
   3965 C          25.2027   55.9214   10.5858 C.2     366      M_A    0.0000
   3966 N          25.0257   57.0512   10.8666 N.3     366      M_A    0.0000
   3967 O          24.6044   55.4794    9.8456 O.2     366      M_A    0.0000
   3968 H          25.7912   53.8818   10.0848 H       366      M_A    0.0000
   3969 H          25.8156   53.5224   11.5371 H       366      M_A    0.0000
   3970 H          26.9753   55.7579   10.9969 H       366      M_A    0.0000
   3971 H          25.2449   57.3128   11.6656 H       366      M_A    0.0000
   3972 H          24.3193   57.4173   10.5246 H       366      M_A    0.0000
   3973 C          26.0122   55.4757   12.5777 C.3     367      M_A    0.0000
   3974 C          25.1411   56.4086   12.8805 C.3     367      M_A    0.0000
   3975 C          25.4084   57.5206   12.2240 C.2     367      M_A    0.0000
   3976 N          24.6470   58.4050   12.3812 N.3     367      M_A    0.0000
   3977 O          26.2435   57.6695   11.6062 O.2     367      M_A    0.0000
   3978 H          25.7896   54.6500   12.9605 H       367      M_A    0.0000
   3979 H          26.8555   55.6996   12.9230 H       367      M_A    0.0000
   3980 H          25.1842   56.6152   13.7949 H       367      M_A    0.0000
   3981 H          23.8246   58.2058   12.5783 H       367      M_A    0.0000
   3982 H          24.7617   59.0949   11.8706 H       367      M_A    0.0000
   3983 C          23.8576   56.0165   12.6168 C.3     368      M_A    0.0000
   3984 C          23.0230   57.0231   12.5105 C.3     368      M_A    0.0000
   3985 C          23.6215   58.0634   11.9640 C.2     368      M_A    0.0000
   3986 N          22.9399   59.0037   11.7695 N.3     368      M_A    0.0000
   3987 O          24.6407   58.1120   11.7192 O.2     368      M_A    0.0000
   3988 H          23.8520   55.4738   11.8532 H       368      M_A    0.0000
   3989 H          23.6016   55.4610   13.3284 H       368      M_A    0.0000
   3990 H          22.7249   57.2946   13.3579 H       368      M_A    0.0000
   3991 H          22.0916   58.8726   11.6353 H       368      M_A    0.0000
   3992 H          23.3045   59.6446   11.3154 H       368      M_A    0.0000
   3993 C          21.9143   56.6947   11.7802 C.3     369      M_A    0.0000
   3994 C          20.8364   56.5549   12.5147 C.2     369      M_A    0.0000
   3995 C          20.1871   57.6992   12.6044 C.2     369      M_A    0.0000
   3996 N          19.1695   57.6668   13.1960 N.3     369      M_A    0.0000
   3997 O          20.5210   58.6136   12.2124 O.2     369      M_A    0.0000
   3998 H          21.7955   57.3271   11.0993 H       369      M_A    0.0000
   3999 H          22.1150   55.8865   11.3476 H       369      M_A    0.0000
   4000 H          21.0643   56.3019   13.3892 H       369      M_A    0.0000
   4001 H          18.7301   56.9175   13.2122 H       369      M_A    0.0000
   4002 H          18.6930   58.3891   13.1640 H       369      M_A    0.0000
   4003 C          41.6379   30.2872    7.6694 C.2     370      M_A    0.0000
   4004 C          40.4242   31.4679    7.3079 C.3     370      M_A    0.0000
   4005 C          38.8639   30.9257    7.8564 C.2     370      M_A    0.0000
   4006 N          37.6923   31.9285    7.6640 N.3     370      M_A    0.0000
   4007 O          38.6035   29.6832    8.4103 O.2     370      M_A    0.0000
   4008 H          41.9226   30.2689    8.8725 H       370      M_A    0.0000
   4009 H          42.6892   30.5652    7.0767 H       370      M_A    0.0000
   4010 H          40.3353   31.6394    6.0845 H       370      M_A    0.0000
   4011 H          37.9372   33.0487    7.6558 H       370      M_A    0.0000
   4012 H          36.7008   31.6320    8.1492 H       370      M_A    0.0000
   4013 C          40.8014   33.0728    8.0431 C.3     371      M_A    0.0000
   4014 C          42.4098   33.6156    7.7023 C.3     371      M_A    0.0000
   4015 C          42.9441   33.0087    6.1610 C.2     371      M_A    0.0000
   4016 N          44.3477   33.4863    5.6947 N.3     371      M_A    0.0000
   4017 O          42.2310   32.1307    5.3617 O.2     371      M_A    0.0000
   4018 H          39.9496   33.8944    7.6850 H       371      M_A    0.0000
   4019 H          40.6496   32.9382    9.2648 H       371      M_A    0.0000
   4020 H          43.2025   33.1866    8.5518 H       371      M_A    0.0000
   4021 H          44.7235   34.5027    6.0697 H       371      M_A    0.0000
   4022 H          44.6381   33.2036    4.6260 H       371      M_A    0.0000
   4023 C          42.5344   35.4164    7.7212 C.3     372      M_A    0.0000
   4024 C          44.1686   35.9841    7.7917 C.3     372      M_A    0.0000
   4025 C          44.8739   36.0103    6.2007 C.2     372      M_A    0.0000
   4026 N          46.3187   36.5757    6.1096 N.3     372      M_A    0.0000
   4027 O          44.2579   35.5463    5.0502 O.2     372      M_A    0.0000
   4028 H          41.9258   35.8763    6.7482 H       372      M_A    0.0000
   4029 H          41.9105   35.7960    8.7215 H       372      M_A    0.0000
   4030 H          44.8634   35.2243    8.4803 H       372      M_A    0.0000
   4031 H          46.6462   37.3471    6.8923 H       372      M_A    0.0000
   4032 H          46.7276   36.7240    5.0526 H       372      M_A    0.0000
   4033 C          44.2830   37.6260    8.5329 C.3     373      M_A    0.0000
   4034 C          44.4747   38.8881    7.3632 C.3     373      M_A    0.0000
   4035 C          45.1867   38.2630    5.9032 C.2     373      M_A    0.0000
   4036 N          45.3432   39.2786    4.7373 N.3     373      M_A    0.0000
   4037 O          45.6355   36.9641    5.7304 O.2     373      M_A    0.0000
   4038 H          43.3005   37.8134    9.2599 H       373      M_A    0.0000
   4039 H          45.2633   37.5969    9.2893 H       373      M_A    0.0000
   4040 H          45.2398   39.7637    7.7899 H       373      M_A    0.0000
   4041 H          44.6060   40.1553    4.6833 H       373      M_A    0.0000
   4042 H          45.6779   38.8380    3.7372 H       373      M_A    0.0000
   4043 C          42.9072   39.6954    6.9761 C.3     374      M_A    0.0000
   4044 C          43.0010   40.7353    5.5949 C.3     374      M_A    0.0000
   4045 C          42.4829   39.8937    4.1621 C.2     374      M_A    0.0000
   4046 N          42.4433   40.7380    2.8579 N.3     374      M_A    0.0000
   4047 O          42.1419   38.5525    4.1074 O.2     374      M_A    0.0000
   4048 H          42.0273   38.8359    6.8500 H       374      M_A    0.0000
   4049 H          42.5984   40.3515    7.9802 H       374      M_A    0.0000
   4050 H          44.1705   41.0929    5.3986 H       374      M_A    0.0000
   4051 H          42.2680   41.8674    2.9517 H       374      M_A    0.0000
   4052 H          41.9713   40.2275    1.9507 H       374      M_A    0.0000
   4053 C          42.0164   42.2333    5.8078 C.3     375      M_A    0.0000
   4054 C          40.5770   42.2432    4.8455 C.3     375      M_A    0.0000
   4055 C          40.5967   40.9278    3.7059 C.2     375      M_A    0.0000
   4056 N          39.3231   40.7727    2.8287 N.3     375      M_A    0.0000
   4057 O          41.6554   40.0549    3.5174 O.2     375      M_A    0.0000
   4058 H          41.7715   42.3916    7.0094 H       375      M_A    0.0000
   4059 H          42.7490   43.1779    5.4840 H       375      M_A    0.0000
   4060 H          40.5022   43.2889    4.1860 H       375      M_A    0.0000
   4061 H          38.3257   41.1434    3.2559 H       375      M_A    0.0000
   4062 H          39.2770   39.8304    2.1834 H       375      M_A    0.0000
   4063 C          39.0857   42.1462    5.8580 C.3     376      M_A    0.0000
   4064 C          38.4166   40.5510    5.9318 C.2     376      M_A    0.0000
   4065 C          39.0694   39.6785    7.2890 C.2     376      M_A    0.0000
   4066 N          38.4926   38.2538    7.5191 N.3     376      M_A    0.0000
   4067 O          40.0611   40.1486    8.1339 O.2     376      M_A    0.0000
   4068 H          39.3275   42.5997    6.9826 H       376      M_A    0.0000
   4069 H          38.2692   42.9249    5.3472 H       376      M_A    0.0000
   4070 H          38.7125   39.9081    4.9154 H       376      M_A    0.0000
   4071 H          37.4230   38.0414    7.1645 H       376      M_A    0.0000
   4072 H          38.8156   37.7381    8.4866 H       376      M_A    0.0000
   4073 C          42.4648   30.0722   18.9087 C.2     377      M_A    0.0000
   4074 C          42.3465   28.6854   19.5568 C.3     377      M_A    0.0000
   4075 C          41.3220   28.2429   19.3668 C.2     377      M_A    0.0000
   4076 N          41.1998   27.2792   19.6461 N.3     377      M_A    0.0000
   4077 O          40.6246   28.6878   19.0104 O.2     377      M_A    0.0000
   4078 H          41.5076   30.4180   18.5007 H       377      M_A    0.0000
   4079 H          43.1571   30.0311   18.0570 H       377      M_A    0.0000
   4080 H          42.4602   28.6776   20.3542 H       377      M_A    0.0000
   4081 H          41.8002   26.8368   19.6519 H       377      M_A    0.0000
   4082 H          40.5602   26.9619   19.4391 H       377      M_A    0.0000
   4083 C          43.1688   27.9936   19.0839 C.3     378      M_A    0.0000
   4084 C          42.8327   27.4942   18.1322 C.3     378      M_A    0.0000
   4085 C          43.6877   26.9195   17.6629 C.2     378      M_A    0.0000
   4086 N          43.4610   26.3964   16.8282 N.3     378      M_A    0.0000
   4087 O          44.5357   26.9143   17.9667 O.2     378      M_A    0.0000
   4088 H          43.8436   28.4184   18.9792 H       378      M_A    0.0000
   4089 H          43.3425   27.4377   19.6403 H       378      M_A    0.0000
   4090 H          42.5966   28.0438   17.5927 H       378      M_A    0.0000
   4091 H          42.7606   26.1535   16.7459 H       378      M_A    0.0000
   4092 H          43.9962   25.9479   16.5732 H       378      M_A    0.0000
   4093 C          41.9238   26.7729   18.3111 C.3     379      M_A    0.0000
   4094 C          41.6946   26.1214   17.4216 C.3     379      M_A    0.0000
   4095 C          42.3283   25.1836   17.4435 C.2     379      M_A    0.0000
   4096 N          42.1509   24.5149   16.7065 N.3     379      M_A    0.0000
   4097 O          42.9739   25.0097   18.0471 O.2     379      M_A    0.0000
   4098 H          42.0565   26.3399   18.9756 H       379      M_A    0.0000
   4099 H          41.2920   27.2440   18.4777 H       379      M_A    0.0000
   4100 H          41.8706   26.5065   16.7363 H       379      M_A    0.0000
   4101 H          41.4676   24.4947   16.4083 H       379      M_A    0.0000
   4102 H          42.4998   23.8619   16.7726 H       379      M_A    0.0000
   4103 C          40.5587   25.8289   17.3715 C.3     380      M_A    0.0000
   4104 C          40.3112   25.1654   16.4960 C.3     380      M_A    0.0000
   4105 C          39.5395   24.3915   16.7908 C.2     380      M_A    0.0000
   4106 N          39.2200   23.7834   16.0493 N.3     380      M_A    0.0000
   4107 O          39.2161   24.2748   17.6234 O.2     380      M_A    0.0000
   4108 H          40.3396   25.4986   18.0713 H       380      M_A    0.0000
   4109 H          40.1502   26.5209   17.3170 H       380      M_A    0.0000
   4110 H          40.9650   24.7626   16.2527 H       380      M_A    0.0000
   4111 H          39.2370   24.0435   15.3505 H       380      M_A    0.0000
   4112 H          38.6495   23.3384   16.2202 H       380      M_A    0.0000
   4113 C          39.9215   25.7799   15.5746 C.3     381      M_A    0.0000
   4114 C          40.1680   25.2995   14.5865 C.3     381      M_A    0.0000
   4115 C          39.3134   25.4336   13.8563 C.2     381      M_A    0.0000
   4116 N          39.4703   25.0759   12.9240 N.3     381      M_A    0.0000
   4117 O          38.5194   25.8108   14.0533 O.2     381      M_A    0.0000
   4118 H          39.1322   25.9097   15.6580 H       381      M_A    0.0000
   4119 H          40.2703   26.5044   15.6234 H       381      M_A    0.0000
   4120 H          40.2758   24.5063   14.6768 H       381      M_A    0.0000
   4121 H          40.1720   25.0465   12.6732 H       381      M_A    0.0000
   4122 H          38.9488   25.2445   12.4218 H       381      M_A    0.0000
   4123 C          41.1556   25.7315   14.1213 C.3     382      M_A    0.0000
   4124 C          41.2458   25.5368   13.0159 C.3     382      M_A    0.0000
   4125 C          40.2587   25.7319   12.4972 C.2     382      M_A    0.0000
   4126 N          40.2621   25.6306   11.4915 N.3     382      M_A    0.0000
   4127 O          39.4894   25.9469   12.9136 O.2     382      M_A    0.0000
   4128 H          41.2089   26.5149   14.2947 H       382      M_A    0.0000
   4129 H          41.7631   25.3771   14.5140 H       382      M_A    0.0000
   4130 H          41.4333   24.7654   12.8791 H       382      M_A    0.0000
   4131 H          40.9025   25.7516   11.1290 H       382      M_A    0.0000
   4132 H          39.6418   25.8468   11.1434 H       382      M_A    0.0000
   4133 C          42.0871   26.1896   12.5214 C.3     383      M_A    0.0000
   4134 C          42.8226   25.5829   11.9222 C.3     383      M_A    0.0000
   4135 C          42.9179   24.5394   12.3506 C.2     383      M_A    0.0000
   4136 N          43.5217   23.9080   11.8422 N.3     383      M_A    0.0000
   4137 O          42.5163   24.2510   13.1036 O.2     383      M_A    0.0000
   4138 H          41.7468   26.7706   12.0817 H       383      M_A    0.0000
   4139 H          42.4661   26.5638   13.1256 H       383      M_A    0.0000
   4140 H          43.5554   25.9161   11.9532 H       383      M_A    0.0000
   4141 H          43.6069   24.0180   11.1095 H       383      M_A    0.0000
   4142 H          43.5127   23.2002   12.0692 H       383      M_A    0.0000
   4143 C          42.5203   25.5183   10.7896 C.3     384      M_A    0.0000
   4144 C          43.3818   25.7104   10.0903 C.2     384      M_A    0.0000
   4145 C          43.9016   24.7402    9.8257 C.2     384      M_A    0.0000
   4146 N          44.6584   24.8133    9.1597 N.3     384      M_A    0.0000
   4147 O          43.7014   23.9344   10.1751 O.2     384      M_A    0.0000
   4148 H          42.1710   24.8076   10.6493 H       384      M_A    0.0000
   4149 H          41.9460   26.0719   10.6779 H       384      M_A    0.0000
   4150 H          43.9320   26.1818   10.4424 H       384      M_A    0.0000
   4151 H          44.6369   25.3704    8.6642 H       384      M_A    0.0000
   4152 H          44.9381   24.1687    8.9171 H       384      M_A    0.0000
   4153 C          50.8633   19.2882   12.5970 C.2     385      M_A    0.0000
   4154 C          49.7945   18.1481   12.0683 C.3     385      M_A    0.0000
   4155 C          48.2915   18.4166   12.7158 C.2     385      M_A    0.0000
   4156 N          47.2196   17.5025   12.2594 N.3     385      M_A    0.0000
   4157 O          48.0054   19.3480   13.6058 O.2     385      M_A    0.0000
   4158 H          50.3809   20.0097   13.3936 H       385      M_A    0.0000
   4159 H          51.1968   19.9763   11.6983 H       385      M_A    0.0000
   4160 H          50.1304   17.0720   12.4174 H       385      M_A    0.0000
   4161 H          47.3126   17.0570   11.2661 H       385      M_A    0.0000
   4162 H          46.2108   17.7604   12.5784 H       385      M_A    0.0000
   4163 C          49.6864   18.1125   10.3521 C.3     386      M_A    0.0000
   4164 C          48.8717   19.4038    9.7274 C.3     386      M_A    0.0000
   4165 C          47.4872   18.9028    8.9641 C.2     386      M_A    0.0000
   4166 N          46.6241   19.9774    8.4226 N.3     386      M_A    0.0000
   4167 O          47.1311   17.6441    8.7901 O.2     386      M_A    0.0000
   4168 H          50.7687   18.0116    9.8978 H       386      M_A    0.0000
   4169 H          49.1265   17.1107   10.0777 H       386      M_A    0.0000
   4170 H          49.5288   19.9556    8.9173 H       386      M_A    0.0000
   4171 H          46.6536   20.9547    8.9101 H       386      M_A    0.0000
   4172 H          45.6546   19.6584    8.0425 H       386      M_A    0.0000
   4173 C          48.4784   20.5634   10.9352 C.3     387      M_A    0.0000
   4174 C          47.6485   21.8602   10.3424 C.3     387      M_A    0.0000
   4175 C          46.9708   22.7311   11.5803 C.2     387      M_A    0.0000
   4176 N          46.2581   23.9674   11.1848 N.3     387      M_A    0.0000
   4177 O          47.0022   22.3876   12.8541 O.2     387      M_A    0.0000
   4178 H          47.8971   20.0298   11.8100 H       387      M_A    0.0000
   4179 H          49.5041   20.9180   11.3984 H       387      M_A    0.0000
   4180 H          46.7623   21.5032    9.6497 H       387      M_A    0.0000
   4181 H          46.5803   24.4770   10.2736 H       387      M_A    0.0000
   4182 H          45.9307   24.6067   12.0034 H       387      M_A    0.0000
   4183 C          48.6500   22.8875    9.3938 C.3     388      M_A    0.0000
   4184 C          49.2686   24.1568   10.2470 C.3     388      M_A    0.0000
   4185 C          50.0659   23.6157   11.5967 C.2     388      M_A    0.0000
   4186 N          50.7336   24.6560   12.4121 N.3     388      M_A    0.0000
   4187 O          50.1179   22.3579   11.9926 O.2     388      M_A    0.0000
   4188 H          49.4955   22.2430    8.8860 H       388      M_A    0.0000
   4189 H          47.9737   23.2849    8.5123 H       388      M_A    0.0000
   4190 H          48.4024   24.8651   10.6219 H       388      M_A    0.0000
   4191 H          51.0704   25.5654   11.9090 H       388      M_A    0.0000
   4192 H          51.3666   24.2899   13.2191 H       388      M_A    0.0000
   4193 C          50.3309   25.1171    9.2944 C.3     389      M_A    0.0000
   4194 C          51.8418   25.2498    9.9435 C.3     389      M_A    0.0000
   4195 C          52.1708   23.9498   10.9193 C.2     389      M_A    0.0000
   4196 N          53.5298   23.9112   11.5062 N.3     389      M_A    0.0000
   4197 O          51.3145   22.9912   11.2184 O.2     389      M_A    0.0000
   4198 H          50.3581   24.6916    8.1961 H       389      M_A    0.0000
   4199 H          49.8305   26.1829    9.2153 H       389      M_A    0.0000
   4200 H          51.9188   26.2138   10.6199 H       389      M_A    0.0000
   4201 H          54.3396   24.4000   10.9595 H       389      M_A    0.0000
   4202 H          53.7904   22.9954   12.0349 H       389      M_A    0.0000
   4203 C          53.0546   25.3841    8.7313 C.3     390      M_A    0.0000
   4204 C          53.1236   26.8837    8.0473 C.3     390      M_A    0.0000
   4205 C          53.7145   27.9901    9.1322 C.2     390      M_A    0.0000
   4206 N          53.8966   29.3661    8.6160 N.3     390      M_A    0.0000
   4207 O          53.9979   27.7354   10.3957 O.2     390      M_A    0.0000
   4208 H          54.0922   25.0569    9.1835 H       390      M_A    0.0000
   4209 H          52.7915   24.5778    7.9108 H       390      M_A    0.0000
   4210 H          52.0443   27.2486    7.7396 H       390      M_A    0.0000
   4211 H          54.0920   29.4927    7.5486 H       390      M_A    0.0000
   4212 H          54.4080   30.0576    9.2841 H       390      M_A    0.0000
   4213 C          54.0880   26.8989    6.6233 C.3     391      M_A    0.0000
   4214 C          53.2111   27.1562    5.2498 C.3     391      M_A    0.0000
   4215 C          54.1488   26.9010    3.9059 C.2     391      M_A    0.0000
   4216 N          53.4567   27.0274    2.6028 N.3     391      M_A    0.0000
   4217 O          55.4397   26.6279    3.9236 O.2     391      M_A    0.0000
   4218 H          54.9528   27.6889    6.7494 H       391      M_A    0.0000
   4219 H          54.6179   25.8457    6.5725 H       391      M_A    0.0000
   4220 H          52.8384   28.2748    5.1999 H       391      M_A    0.0000
   4221 H          52.3856   26.8153    2.5673 H       391      M_A    0.0000
   4222 H          54.0354   26.7297    1.7296 H       391      M_A    0.0000
   4223 C          51.8151   26.1540    5.1791 C.3     392      M_A    0.0000
   4224 C          52.0529   24.7724    4.3096 C.3     392      M_A    0.0000
   4225 C          53.2360   23.8433    5.0076 C.2     392      M_A    0.0000
   4226 N          53.4942   22.5356    4.3626 N.3     392      M_A    0.0000
   4227 O          53.9588   24.1974    6.0534 O.2     392      M_A    0.0000
   4228 H          51.4445   25.9280    6.2743 H       392      M_A    0.0000
   4229 H          50.9670   26.8047    4.6792 H       392      M_A    0.0000
   4230 H          52.4185   25.0283    3.2171 H       392      M_A    0.0000
   4231 H          52.6722   22.0566    3.8253 H       392      M_A    0.0000
   4232 H          54.1722   21.8711    4.8961 H       392      M_A    0.0000
   4233 C          50.6090   23.8503    4.1569 C.3     393      M_A    0.0000
   4234 C          50.8745   22.3169    3.6094 C.3     393      M_A    0.0000
   4235 C          52.0943   21.5958    4.4710 C.2     393      M_A    0.0000
   4236 N          52.3812   20.1846    4.1257 N.3     393      M_A    0.0000
   4237 O          52.8215   22.1908    5.3976 O.2     393      M_A    0.0000
   4238 H          50.0335   23.8586    5.1849 H       393      M_A    0.0000
   4239 H          49.9219   24.4367    3.3976 H       393      M_A    0.0000
   4240 H          51.2166   22.3337    2.4801 H       393      M_A    0.0000
   4241 H          51.5659   19.5779    3.7246 H       393      M_A    0.0000
   4242 H          53.0860   19.6721    4.7788 H       393      M_A    0.0000
   4243 C          49.4561   21.3477    3.6940 C.3     394      M_A    0.0000
   4244 C          48.8370   20.9746    2.2111 C.3     394      M_A    0.0000
   4245 C          49.8269   19.9038    1.4212 C.2     394      M_A    0.0000
   4246 N          49.3440   19.4297    0.1041 N.3     394      M_A    0.0000
   4247 O          50.9952   19.4819    1.8668 O.2     394      M_A    0.0000
   4248 H          49.6828   20.3841    4.3328 H       394      M_A    0.0000
   4249 H          48.6686   21.9690    4.3156 H       394      M_A    0.0000
   4250 H          48.7691   21.9401    1.5359 H       394      M_A    0.0000
   4251 H          48.2654   19.4027   -0.0684 H       394      M_A    0.0000
   4252 H          49.9242   18.6286   -0.3516 H       394      M_A    0.0000
   4253 C          47.2498   20.3213    2.3210 C.3     395      M_A    0.0000
   4254 C          46.0989   21.3005    1.6589 C.3     395      M_A    0.0000
   4255 C          45.4141   20.5773    0.3329 C.2     395      M_A    0.0000
   4256 N          44.3097   21.3246   -0.3112 N.3     395      M_A    0.0000
   4257 O          45.7980   19.4258   -0.1849 O.2     395      M_A    0.0000
   4258 H          47.2404   19.2440    1.8440 H       395      M_A    0.0000
   4259 H          47.0356   20.1670    3.4711 H       395      M_A    0.0000
   4260 H          46.5798   22.3120    1.2871 H       395      M_A    0.0000
   4261 H          43.7142   21.9979    0.3098 H       395      M_A    0.0000
   4262 H          43.7730   20.7923   -1.0951 H       395      M_A    0.0000
   4263 C          44.8716   21.7102    2.7921 C.3     396      M_A    0.0000
   4264 C          45.1857   23.1079    3.6101 C.3     396      M_A    0.0000
   4265 C          45.0161   24.4181    2.6076 C.2     396      M_A    0.0000
   4266 N          45.1988   25.7437    3.2417 N.3     396      M_A    0.0000
   4267 O          44.7636   24.3543    1.3139 O.2     396      M_A    0.0000
   4268 H          43.8312   21.7457    2.2405 H       396      M_A    0.0000
   4269 H          44.8055   20.8063    3.5479 H       396      M_A    0.0000
   4270 H          46.2991   23.1178    4.0011 H       396      M_A    0.0000
   4271 H          44.9713   25.8399    4.3060 H       396      M_A    0.0000
   4272 H          44.9564   26.6032    2.6184 H       396      M_A    0.0000
   4273 C          44.1659   23.2947    4.9825 C.3     397      M_A    0.0000
   4274 C          42.5657   23.0998    4.6318 C.2     397      M_A    0.0000
   4275 C          42.1156   21.5165    4.8338 C.2     397      M_A    0.0000
   4276 N          40.6800   21.2217    4.6217 N.3     397      M_A    0.0000
   4277 O          42.9364   20.5282    5.1356 O.2     397      M_A    0.0000
   4278 H          44.5236   22.5627    5.8335 H       397      M_A    0.0000
   4279 H          44.3597   24.3845    5.3915 H       397      M_A    0.0000
   4280 H          42.3523   23.3752    3.5043 H       397      M_A    0.0000
   4281 H          39.9584   22.0206    4.8082 H       397      M_A    0.0000
   4282 H          40.3606   20.2141    4.8840 H       397      M_A    0.0000
   4283 C          60.7944   19.5149    7.3119 C.2     398      M_A    0.0000
   4284 C          60.7980   18.4411    7.2915 C.3     398      M_A    0.0000
   4285 C          61.6402   18.0553    7.8459 C.2     398      M_A    0.0000
   4286 N          61.6912   17.0954    7.9186 N.3     398      M_A    0.0000
   4287 O          62.2588   18.5348    8.2003 O.2     398      M_A    0.0000
   4288 H          61.0800   19.7908    7.9680 H       398      M_A    0.0000
   4289 H          60.0732   19.7761    7.2703 H       398      M_A    0.0000
   4290 H          60.8696   18.1853    6.5707 H       398      M_A    0.0000
   4291 H          61.0842   16.7254    7.8933 H       398      M_A    0.0000
   4292 H          62.1921   16.8459    8.3539 H       398      M_A    0.0000
   4293 C          59.8490   18.0105    7.7011 C.3     399      M_A    0.0000
   4294 C          59.7969   18.0482    8.7731 C.3     399      M_A    0.0000
   4295 C          58.7911   18.2724    9.0950 C.2     399      M_A    0.0000
   4296 N          58.6463   18.2769   10.0481 N.3     399      M_A    0.0000
   4297 O          58.1358   18.4588    8.5717 O.2     399      M_A    0.0000
   4298 H          59.2508   18.3598    7.3718 H       399      M_A    0.0000
   4299 H          59.8238   17.2808    7.4623 H       399      M_A    0.0000
   4300 H          60.2479   18.6074    9.0454 H       399      M_A    0.0000
   4301 H          59.0645   17.8671   10.4519 H       399      M_A    0.0000
   4302 H          57.9713   18.3370   10.2565 H       399      M_A    0.0000
   4303 C          60.1381   17.0913    9.2438 C.3     400      M_A    0.0000
   4304 C          59.6874   16.9081   10.2012 C.3     400      M_A    0.0000
   4305 C          58.6960   17.3338   10.2400 C.2     400      M_A    0.0000
   4306 N          58.2008   17.1719   11.0511 N.3     400      M_A    0.0000
   4307 O          58.3384   17.8083    9.6195 O.2     400      M_A    0.0000
   4308 H          60.0186   16.5129    8.7545 H       400      M_A    0.0000
   4309 H          60.9005   17.1489    9.3189 H       400      M_A    0.0000
   4310 H          60.0955   17.2424   10.7597 H       400      M_A    0.0000
   4311 H          58.3479   16.5823   11.4208 H       400      M_A    0.0000
   4312 H          57.5216   17.3749   11.0426 H       400      M_A    0.0000
   4313 C          59.6371   15.8151   10.4391 C.3     401      M_A    0.0000
   4314 C          59.0177   15.5966   11.2888 C.3     401      M_A    0.0000
   4315 C          58.3646   14.7636   11.0763 C.2     401      M_A    0.0000
   4316 N          57.8071   14.4702   11.8059 N.3     401      M_A    0.0000
   4317 O          58.2996   14.3694   10.3157 O.2     401      M_A    0.0000
   4318 H          59.4135   15.4310    9.8141 H       401      M_A    0.0000
   4319 H          60.3593   15.5917   10.5759 H       401      M_A    0.0000
   4320 H          58.5673   16.1962   11.4555 H       401      M_A    0.0000
   4321 H          58.0406   14.5770   12.4692 H       401      M_A    0.0000
   4322 H          57.4441   13.8715   11.6943 H       401      M_A    0.0000
   4323 C          59.6237   15.3755   12.2040 C.3     402      M_A    0.0000
   4324 C          59.1410   15.6811   13.1134 C.3     402      M_A    0.0000
   4325 C          58.4778   14.9065   13.4681 C.2     402      M_A    0.0000
   4326 N          58.0397   15.0811   14.3089 N.3     402      M_A    0.0000
   4327 O          58.3075   14.1744   13.0520 O.2     402      M_A    0.0000
   4328 H          59.8062   14.6306   12.2118 H       402      M_A    0.0000
   4329 H          60.2871   15.7534   12.1188 H       402      M_A    0.0000
   4330 H          58.7101   16.3056   12.9932 H       402      M_A    0.0000
   4331 H          58.3671   15.5078   14.7744 H       402      M_A    0.0000
   4332 H          57.6744   14.5393   14.5839 H       402      M_A    0.0000
   4333 C          59.8796   15.9396   13.9142 C.3     403      M_A    0.0000
   4334 C          59.5269   16.7023   14.5830 C.3     403      M_A    0.0000
   4335 C          59.7454   16.4381   15.6067 C.2     403      M_A    0.0000
   4336 N          59.5043   17.0942   16.2705 N.3     403      M_A    0.0000
   4337 O          60.0937   15.6949   15.8606 O.2     403      M_A    0.0000
   4338 H          60.0809   15.3006   14.2876 H       403      M_A    0.0000
   4339 H          60.5132   16.1800   13.5524 H       403      M_A    0.0000
   4340 H          58.7640   16.7757   14.5298 H       403      M_A    0.0000
   4341 H          59.4928   17.7782   16.0759 H       403      M_A    0.0000
   4342 H          59.7260   16.9600   16.9305 H       403      M_A    0.0000
   4343 C          59.9712   17.7033   14.3498 C.3     404      M_A    0.0000
   4344 C          59.2445   18.4939   14.3339 C.3     404      M_A    0.0000
   4345 C          59.7288   19.4499   14.2036 C.2     404      M_A    0.0000
   4346 N          59.1422   20.2114   14.1297 N.3     404      M_A    0.0000
   4347 O          60.5787   19.5731   14.1802 O.2     404      M_A    0.0000
   4348 H          60.5415   17.8469   14.8420 H       404      M_A    0.0000
   4349 H          60.3014   17.6360   13.6594 H       404      M_A    0.0000
   4350 H          58.8655   18.5252   15.0015 H       404      M_A    0.0000
   4351 H          58.4892   20.1064   13.8679 H       404      M_A    0.0000
   4352 H          59.4539   20.8243   13.9572 H       404      M_A    0.0000
   4353 C          58.4810   18.3460   13.5284 C.3     405      M_A    0.0000
   4354 C          58.5977   19.0274   12.7065 C.3     405      M_A    0.0000
   4355 C          59.6306   19.3253   12.6063 C.2     405      M_A    0.0000
   4356 N          59.8311   19.9009   11.8593 N.3     405      M_A    0.0000
   4357 O          60.2624   19.1030   13.1442 O.2     405      M_A    0.0000
   4358 H          58.4946   17.6142   13.2992 H       405      M_A    0.0000
   4359 H          57.7959   18.4495   13.8603 H       405      M_A    0.0000
   4360 H          58.1916   19.6682   12.8277 H       405      M_A    0.0000
   4361 H          59.4176   19.8563   11.2823 H       405      M_A    0.0000
   4362 H          60.5193   20.0250   11.7427 H       405      M_A    0.0000
   4363 C          58.2379   18.5870   11.7420 C.3     406      M_A    0.0000
   4364 C          57.2151   18.8302   11.5229 C.3     406      M_A    0.0000
   4365 C          57.1258   19.2213   10.5206 C.2     406      M_A    0.0000
   4366 N          56.2299   19.4202   10.2256 N.3     406      M_A    0.0000
   4367 O          57.7846   19.3785    9.9921 O.2     406      M_A    0.0000
   4368 H          58.7110   18.7980   11.1763 H       406      M_A    0.0000
   4369 H          58.3184   17.8260   11.8102 H       406      M_A    0.0000
   4370 H          56.9599   19.3765   11.9990 H       406      M_A    0.0000
   4371 H          55.6939   19.0491   10.5101 H       406      M_A    0.0000
   4372 H          56.1625   19.5932    9.5413 H       406      M_A    0.0000
   4373 C          56.5385   17.9462   11.6433 C.3     407      M_A    0.0000
   4374 C          56.6373   17.2284   10.8506 C.3     407      M_A    0.0000
   4375 C          57.6235   16.7891   10.8591 C.2     407      M_A    0.0000
   4376 N          57.7804   16.0965   10.2071 N.3     407      M_A    0.0000
   4377 O          58.2632   17.0233   11.3825 O.2     407      M_A    0.0000
   4378 H          56.6557   17.6309   12.3326 H       407      M_A    0.0000
   4379 H          55.8226   18.2242   11.6584 H       407      M_A    0.0000
   4380 H          56.5505   17.5681   10.1670 H       407      M_A    0.0000
   4381 H          57.2237   15.7132    9.9858 H       407      M_A    0.0000
   4382 H          58.3952   15.7489   10.2695 H       407      M_A    0.0000
   4383 C          55.8650   16.4205   10.9174 C.3     408      M_A    0.0000
   4384 C          56.2270   15.5295   11.3955 C.3     408      M_A    0.0000
   4385 C          55.9715   15.5330   12.4445 C.2     408      M_A    0.0000
   4386 N          56.2183   14.7435   12.9395 N.3     408      M_A    0.0000
   4387 O          55.5899   16.1828   12.8570 O.2     408      M_A    0.0000
   4388 H          55.2390   16.6979   11.2628 H       408      M_A    0.0000
   4389 H          55.6547   16.2642   10.1952 H       408      M_A    0.0000
   4390 H          56.9932   15.4929   11.3528 H       408      M_A    0.0000
   4391 H          56.2598   14.1271   12.5870 H       408      M_A    0.0000
   4392 H          55.9742   14.7083   13.6042 H       408      M_A    0.0000
   4393 C          55.8256   14.6020   10.9137 C.3     409      M_A    0.0000
   4394 C          56.1086   13.7030   11.4285 C.3     409      M_A    0.0000
   4395 C          57.1832   13.6344   11.5065 C.2     409      M_A    0.0000
   4396 N          57.5211   12.8780   11.9996 N.3     409      M_A    0.0000
   4397 O          57.7395   14.1849   11.1524 O.2     409      M_A    0.0000
   4398 H          55.0646   14.6643   10.8415 H       409      M_A    0.0000
   4399 H          56.1046   14.5939   10.1980 H       409      M_A    0.0000
   4400 H          55.8734   13.0838   11.0392 H       409      M_A    0.0000
   4401 H          57.1105   12.6010   12.5100 H       409      M_A    0.0000
   4402 H          58.2188   12.8796   12.1254 H       409      M_A    0.0000
   4403 C          55.6527   13.6429   12.4495 C.3     410      M_A    0.0000
   4404 C          55.0729   12.7516   12.6005 C.3     410      M_A    0.0000
   4405 C          55.6921   11.9601   12.9950 C.2     410      M_A    0.0000
   4406 N          55.2375   11.1366   13.2059 N.3     410      M_A    0.0000
   4407 O          56.5417   12.0105   13.1124 O.2     410      M_A    0.0000
   4408 H          56.2042   13.7197   12.9769 H       410      M_A    0.0000
   4409 H          55.2051   14.2630   12.5216 H       410      M_A    0.0000
   4410 H          54.7871   12.4996   11.9335 H       410      M_A    0.0000
   4411 H          54.5497   11.1703   13.3838 H       410      M_A    0.0000
   4412 H          55.6251   10.6492   13.5449 H       410      M_A    0.0000
   4413 C          54.2047   12.9269   13.2856 C.3     411      M_A    0.0000
   4414 C          54.4398   12.7490   14.3183 C.2     411      M_A    0.0000
   4415 C          54.7808   13.6581   14.7904 C.2     411      M_A    0.0000
   4416 N          54.9675   13.5968   15.7342 N.3     411      M_A    0.0000
   4417 O          54.9095   14.4053   14.3864 O.2     411      M_A    0.0000
   4418 H          53.9317   13.6343   13.1708 H       411      M_A    0.0000
   4419 H          53.6499   12.4477   13.0560 H       411      M_A    0.0000
   4420 H          55.0100   12.2379   14.3809 H       411      M_A    0.0000
   4421 H          54.6126   13.1116   16.1145 H       411      M_A    0.0000
   4422 H          55.1063   14.2105   16.0609 H       411      M_A    0.0000
   4423 C          67.4597   29.9806   17.5064 C.2     412      M_A    0.0000
   4424 C          66.6537   28.6822   17.3586 C.3     412      M_A    0.0000
   4425 C          67.5090   27.5889   16.6837 C.2     412      M_A    0.0000
   4426 N          66.9137   26.3522   16.5592 N.3     412      M_A    0.0000
   4427 O          68.6428   27.7539   16.2410 O.2     412      M_A    0.0000
   4428 H          68.3708   29.8335   18.0985 H       412      M_A    0.0000
   4429 H          66.8676   30.7309   18.0475 H       412      M_A    0.0000
   4430 H          65.7776   28.8433   16.7161 H       412      M_A    0.0000
   4431 H          66.2046   26.0921   17.2400 H       412      M_A    0.0000
   4432 H          67.5157   25.6052   16.2320 H       412      M_A    0.0000
   4433 C          66.1126   28.1483   18.7675 C.3     413      M_A    0.0000
   4434 C          67.2042   28.0773   19.8448 C.3     413      M_A    0.0000
   4435 C          67.5254   29.4879   20.3827 C.2     413      M_A    0.0000
   4436 N          68.4449   29.5448   21.4078 N.3     413      M_A    0.0000
   4437 O          67.0468   30.5332   19.9504 O.2     413      M_A    0.0000
   4438 H          65.2624   28.7642   19.0840 H       413      M_A    0.0000
   4439 H          65.7042   27.1463   18.5797 H       413      M_A    0.0000
   4440 H          68.1362   27.6771   19.4234 H       413      M_A    0.0000
   4441 H          68.5279   28.7379   22.0210 H       413      M_A    0.0000
   4442 H          68.5622   30.4523   21.8436 H       413      M_A    0.0000
   4443 C          66.7875   27.1208   21.0589 C.3     414      M_A    0.0000
   4444 C          67.9761   26.3569   21.6600 C.3     414      M_A    0.0000
   4445 C          68.9960   27.3398   22.2730 C.2     414      M_A    0.0000
   4446 N          70.0770   26.7659   22.9067 N.3     414      M_A    0.0000
   4447 O          68.9202   28.5641   22.2111 O.2     414      M_A    0.0000
   4448 H          66.2528   27.7090   21.8142 H       414      M_A    0.0000
   4449 H          66.0521   26.4129   20.6536 H       414      M_A    0.0000
   4450 H          68.5058   25.7930   20.8804 H       414      M_A    0.0000
   4451 H          69.9578   25.8412   23.3126 H       414      M_A    0.0000
   4452 H          70.6785   27.4039   23.4152 H       414      M_A    0.0000
   4453 C          67.5113   25.3019   22.7707 C.3     415      M_A    0.0000
   4454 C          67.4490   23.8267   22.8082 C.3     415      M_A    0.0000
   4455 C          67.8895   23.3213   24.1330 C.2     415      M_A    0.0000
   4456 N          67.8115   22.0091   24.3057 N.3     415      M_A    0.0000
   4457 O          68.3153   23.9920   25.0074 O.2     415      M_A    0.0000
   4458 H          68.3517   25.6752   23.2873 H       415      M_A    0.0000
   4459 H          66.6677   25.7118   23.2568 H       415      M_A    0.0000
   4460 H          68.1008   23.4096   22.0888 H       415      M_A    0.0000
   4461 H          67.1363   21.5174   23.7965 H       415      M_A    0.0000
   4462 H          67.9852   21.6904   25.2106 H       415      M_A    0.0000
   4463 C          66.0354   23.3008   22.4977 C.3     416      M_A    0.0000
   4464 C          65.5498   22.3215   23.4911 C.3     416      M_A    0.0000
   4465 C          65.9790   22.7112   24.8580 C.2     416      M_A    0.0000
   4466 N          65.5424   21.9385   25.8428 N.3     416      M_A    0.0000
   4467 O          66.6838   23.6245   25.1130 O.2     416      M_A    0.0000
   4468 H          65.3765   24.1178   22.3933 H       416      M_A    0.0000
   4469 H          66.0908   22.8505   21.5436 H       416      M_A    0.0000
   4470 H          65.9601   21.3665   23.3015 H       416      M_A    0.0000
   4471 H          64.6970   21.4633   25.7145 H       416      M_A    0.0000
   4472 H          65.7226   22.2607   26.7452 H       416      M_A    0.0000
   4473 C          64.0176   22.1721   23.4528 C.3     417      M_A    0.0000
   4474 C          63.5557   21.1882   22.4527 C.3     417      M_A    0.0000
   4475 C          63.3426   19.8629   23.0872 C.2     417      M_A    0.0000
   4476 N          62.8618   18.9141   22.2957 N.3     417      M_A    0.0000
   4477 O          63.5902   19.6020   24.2126 O.2     417      M_A    0.0000
   4478 H          63.6669   21.9455   24.4214 H       417      M_A    0.0000
   4479 H          63.6333   23.1289   23.2228 H       417      M_A    0.0000
   4480 H          64.2851   21.0541   21.7002 H       417      M_A    0.0000
   4481 H          62.3082   19.1854   21.5363 H       417      M_A    0.0000
   4482 H          62.6094   18.0823   22.7374 H       417      M_A    0.0000
   4483 C          62.2609   21.6410   21.7530 C.3     418      M_A    0.0000
   4484 C          61.9848   20.8979   20.5068 C.3     418      M_A    0.0000
   4485 C          61.0596   19.7669   20.7701 C.2     418      M_A    0.0000
   4486 N          60.6866   19.0664   19.7081 N.3     418      M_A    0.0000
   4487 O          60.6664   19.4466   21.8372 O.2     418      M_A    0.0000
   4488 H          61.4587   21.5807   22.4351 H       418      M_A    0.0000
   4489 H          62.3836   22.6688   21.5413 H       418      M_A    0.0000
   4490 H          62.8748   20.4818   20.1182 H       418      M_A    0.0000
   4491 H          60.6677   19.5197   18.8415 H       418      M_A    0.0000
   4492 H          59.9890   18.4030   19.8625 H       418      M_A    0.0000
   4493 C          61.3937   21.8058   19.4124 C.3     419      M_A    0.0000
   4494 C          60.7304   21.0519   18.3293 C.3     419      M_A    0.0000
   4495 C          59.4346   20.4993   18.7984 C.2     419      M_A    0.0000
   4496 N          58.7167   19.8572   17.8874 N.3     419      M_A    0.0000
   4497 O          59.0269   20.5724   19.9049 O.2     419      M_A    0.0000
   4498 H          60.7465   22.5096   19.8578 H       419      M_A    0.0000
   4499 H          62.2022   22.3629   19.0225 H       419      M_A    0.0000
   4500 H          61.3243   20.2303   18.0318 H       419      M_A    0.0000
   4501 H          58.8256   20.1154   16.9502 H       419      M_A    0.0000
   4502 H          57.8170   19.6003   18.1617 H       419      M_A    0.0000
   4503 C          60.5000   21.9206   17.0789 C.3     420      M_A    0.0000
   4504 C          61.3419   21.5220   15.9326 C.3     420      M_A    0.0000
   4505 C          61.1954   22.4918   14.8179 C.2     420      M_A    0.0000
   4506 N          61.9584   22.2713   13.7563 N.3     420      M_A    0.0000
   4507 O          60.4465   23.4056   14.8079 O.2     420      M_A    0.0000
   4508 H          59.4735   21.9142   16.8364 H       420      M_A    0.0000
   4509 H          60.7235   22.9132   17.3636 H       420      M_A    0.0000
   4510 H          61.0405   20.5800   15.5610 H       420      M_A    0.0000
   4511 H          62.8090   21.8071   13.8897 H       420      M_A    0.0000
   4512 H          61.9514   22.9711   13.0775 H       420      M_A    0.0000
   4513 C          62.8269   21.4015   16.3216 C.3     421      M_A    0.0000
   4514 C          63.7185   22.2085   15.4641 C.3     421      M_A    0.0000
   4515 C          65.1407   21.9454   15.7997 C.2     421      M_A    0.0000
   4516 N          66.0367   22.5671   15.0457 N.3     421      M_A    0.0000
   4517 O          65.5125   21.2572   16.6852 O.2     421      M_A    0.0000
   4518 H          62.9385   21.6402   17.3429 H       421      M_A    0.0000
   4519 H          63.0725   20.3775   16.2358 H       421      M_A    0.0000
   4520 H          63.5518   23.2397   15.6226 H       421      M_A    0.0000
   4521 H          65.7868   22.7951   14.1279 H       421      M_A    0.0000
   4522 H          66.9646   22.3028   15.1865 H       421      M_A    0.0000
   4523 C          63.4812   21.9361   13.9672 C.3     422      M_A    0.0000
   4524 C          64.7102   21.5459   13.2468 C.2     422      M_A    0.0000
   4525 C          64.8706   20.0698   13.2541 C.2     422      M_A    0.0000
   4526 N          65.9083   19.5982   12.5769 N.3     422      M_A    0.0000
   4527 O          64.1673   19.3140   13.8283 O.2     422      M_A    0.0000
   4528 H          62.7166   21.2171   13.8623 H       422      M_A    0.0000
   4529 H          63.0936   22.8314   13.5619 H       422      M_A    0.0000
   4530 H          65.5629   21.9493   13.7228 H       422      M_A    0.0000
   4531 H          66.2385   20.1205   11.8186 H       422      M_A    0.0000
   4532 H          65.9457   18.6287   12.4810 H       422      M_A    0.0000
   4533 C          57.2151   25.0050   23.9468 C.2     423      M_A    0.0000
   4534 C          56.8919   23.6748   23.7253 C.3     423      M_A    0.0000
   4535 C          55.6298   23.3867   24.2421 C.2     423      M_A    0.0000
   4536 N          55.2127   22.2311   24.0420 N.3     423      M_A    0.0000
   4537 O          55.0028   24.0939   24.8227 O.2     423      M_A    0.0000
   4538 H          56.4150   25.5883   23.9338 H       423      M_A    0.0000
   4539 H          57.8043   25.3364   23.2209 H       423      M_A    0.0000
   4540 H          57.5354   23.0785   24.1882 H       423      M_A    0.0000
   4541 H          55.5149   21.7857   23.2980 H       423      M_A    0.0000
   4542 H          54.3427   22.0759   24.2806 H       423      M_A    0.0000
   4543 C          56.9310   23.3343   22.3208 C.3     424      M_A    0.0000
   4544 C          55.8841   23.8854   21.5976 C.3     424      M_A    0.0000
   4545 C          56.0257   25.2694   21.5114 C.2     424      M_A    0.0000
   4546 N          55.1701   25.8606   20.8275 N.3     424      M_A    0.0000
   4547 O          56.8155   25.8615   22.0175 O.2     424      M_A    0.0000
   4548 H          57.8130   23.5879   21.9487 H       424      M_A    0.0000
   4549 H          56.8914   22.3443   22.2744 H       424      M_A    0.0000
   4550 H          55.0188   23.7123   22.0508 H       424      M_A    0.0000
   4551 H          54.7700   25.3981   20.1424 H       424      M_A    0.0000
   4552 H          55.3262   26.7500   20.6779 H       424      M_A    0.0000
   4553 C          55.7883   23.3232   20.2691 C.3     425      M_A    0.0000
   4554 C          55.9289   24.2700   19.2658 C.3     425      M_A    0.0000
   4555 C          57.2517   24.7021   19.1845 C.2     425      M_A    0.0000
   4556 N          57.5032   25.5100   18.2716 N.3     425      M_A    0.0000
   4557 O          58.0645   24.3983   19.8756 O.2     425      M_A    0.0000
   4558 H          56.4442   22.5868   20.1790 H       425      M_A    0.0000
   4559 H          54.8939   22.8983   20.2118 H       425      M_A    0.0000
   4560 H          55.3764   25.0700   19.4622 H       425      M_A    0.0000
   4561 H          56.9839   25.4817   17.5147 H       425      M_A    0.0000
   4562 H          58.3887   25.7060   18.1474 H       425      M_A    0.0000
   4563 C          55.5033   23.7643   17.9801 C.3     426      M_A    0.0000
   4564 C          56.5203   23.7477   17.0377 C.3     426      M_A    0.0000
   4565 C          56.0424   23.2870   15.8119 C.2     426      M_A    0.0000
   4566 N          56.8612   23.2910   14.8744 N.3     426      M_A    0.0000
   4567 O          55.0162   22.9069   15.6307 O.2     426      M_A    0.0000
   4568 H          55.0947   22.8703   18.1008 H       426      M_A    0.0000
   4569 H          54.7697   24.3592   17.6773 H       426      M_A    0.0000
   4570 H          57.2430   23.1279   17.3162 H       426      M_A    0.0000
   4571 H          57.5413   23.9077   14.8977 H       426      M_A    0.0000
   4572 H          56.5195   23.0969   14.0477 H       426      M_A    0.0000
   4573 C          57.1210   25.0515   16.8658 C.3     427      M_A    0.0000
   4574 C          57.9508   25.1268   15.7574 C.3     427      M_A    0.0000
   4575 C          57.2165   25.4570   14.6195 C.2     427      M_A    0.0000
   4576 N          57.8754   25.6127   13.5751 N.3     427      M_A    0.0000
   4577 O          56.1130   25.5636   14.5825 O.2     427      M_A    0.0000
   4578 H          56.4078   25.7381   16.8428 H       427      M_A    0.0000
   4579 H          57.6411   25.2281   17.6917 H       427      M_A    0.0000
   4580 H          58.3761   24.2483   15.5806 H       427      M_A    0.0000
   4581 H          58.7482   25.8880   13.6522 H       427      M_A    0.0000
   4582 H          57.4106   25.9384   12.8570 H       427      M_A    0.0000
   4583 C          59.0167   26.0857   15.9428 C.3     428      M_A    0.0000
   4584 C          58.7306   27.3295   15.4005 C.3     428      M_A    0.0000
   4585 C          59.1382   27.3867   14.0688 C.2     428      M_A    0.0000
   4586 N          58.8713   28.4419   13.4648 N.3     428      M_A    0.0000
   4587 O          59.6891   26.5846   13.5364 O.2     428      M_A    0.0000
   4588 H          59.2392   26.1432   16.9060 H       428      M_A    0.0000
   4589 H          59.8169   25.6994   15.5021 H       428      M_A    0.0000
   4590 H          59.2241   28.0417   15.8834 H       428      M_A    0.0000
   4591 H          58.1400   28.9241   13.7405 H       428      M_A    0.0000
   4592 H          59.0364   28.4369   12.5644 H       428      M_A    0.0000
   4593 C          57.3238   27.6498   15.4921 C.3     429      M_A    0.0000
   4594 C          57.0798   29.0125   15.5717 C.3     429      M_A    0.0000
   4595 C          58.0419   29.7233   14.8560 C.2     429      M_A    0.0000
   4596 N          57.8814   30.9567   14.8088 N.3     429      M_A    0.0000
   4597 O          58.9272   29.2748   14.3606 O.2     429      M_A    0.0000
   4598 H          56.8443   27.2307   14.7338 H       429      M_A    0.0000
   4599 H          56.9889   27.1969   16.3085 H       429      M_A    0.0000
   4600 H          57.1344   29.3216   16.5126 H       429      M_A    0.0000
   4601 H          57.0257   31.2836   14.8741 H       429      M_A    0.0000
   4602 H          58.4457   31.4096   14.2481 H       429      M_A    0.0000
   4603 C          55.7618   29.3561   15.0870 C.3     430      M_A    0.0000
   4604 C          54.8306   29.5086   16.1031 C.3     430      M_A    0.0000
   4605 C          53.5553   29.6961   15.5724 C.2     430      M_A    0.0000
   4606 N          52.6303   29.7815   16.4009 N.3     430      M_A    0.0000
   4607 O          53.3233   29.7941   14.4922 O.2     430      M_A    0.0000
   4608 H          55.8246   30.1635   14.5171 H       430      M_A    0.0000
   4609 H          55.4874   28.6185   14.4832 H       430      M_A    0.0000
   4610 H          55.0371   30.3122   16.6468 H       430      M_A    0.0000
   4611 H          52.7319   29.3539   17.2072 H       430      M_A    0.0000
   4612 H          51.7841   29.7910   16.0519 H       430      M_A    0.0000
   4613 C          54.8206   28.3772   17.0031 C.3     431      M_A    0.0000
   4614 C          53.6442   27.6456   16.9449 C.3     431      M_A    0.0000
   4615 C          52.7750   28.1930   16.0025 C.2     431      M_A    0.0000
   4616 N          51.7097   27.5747   15.8237 N.3     431      M_A    0.0000
   4617 O          52.9575   29.1290   15.4361 O.2     431      M_A    0.0000
   4618 H          55.6165   27.8147   16.8279 H       431      M_A    0.0000
   4619 H          54.9454   28.7472   17.9149 H       431      M_A    0.0000
   4620 H          53.1747   27.6711   17.8184 H       431      M_A    0.0000
   4621 H          51.7042   26.6697   15.9797 H       431      M_A    0.0000
   4622 H          51.1919   27.8683   15.1283 H       431      M_A    0.0000
   4623 C          53.8859   26.2549   16.6326 C.3     432      M_A    0.0000
   4624 C          53.1693   25.8116   15.5313 C.3     432      M_A    0.0000
   4625 C          53.6779   26.3716   14.3605 C.2     432      M_A    0.0000
   4626 N          53.1458   25.9908   13.3016 N.3     432      M_A    0.0000
   4627 O          54.4867   27.1294   14.3161 O.2     432      M_A    0.0000
   4628 H          54.8595   26.1098   16.5247 H       432      M_A    0.0000
   4629 H          53.6226   25.7400   17.4384 H       432      M_A    0.0000
   4630 H          52.2206   26.0937   15.5968 H       432      M_A    0.0000
   4631 H          52.7731   25.1517   13.2830 H       432      M_A    0.0000
   4632 H          53.5518   26.2702   12.5302 H       432      M_A    0.0000
   4633 C          53.1779   24.3699   15.4238 C.3     433      M_A    0.0000
   4634 C          51.9112   23.8108   15.4983 C.3     433      M_A    0.0000
   4635 C          51.0483   24.6492   16.2024 C.2     433      M_A    0.0000
   4636 N          49.8645   24.2713   16.2753 N.3     433      M_A    0.0000
   4637 O          51.3461   25.5914   16.7061 O.2     433      M_A    0.0000
   4638 H          53.6509   24.1081   14.5942 H       433      M_A    0.0000
   4639 H          53.7392   24.0395   16.1719 H       433      M_A    0.0000
   4640 H          51.9393   22.9492   15.9889 H       433      M_A    0.0000
   4641 H          49.5379   23.7418   15.5998 H       433      M_A    0.0000
   4642 H          49.2772   24.8727   16.6377 H       433      M_A    0.0000
   4643 C          51.3619   23.5372   14.1893 C.3     434      M_A    0.0000
   4644 C          50.0132   23.2164   14.2209 C.3     434      M_A    0.0000
   4645 C          49.3549   23.7657   13.1218 C.2     434      M_A    0.0000
   4646 N          48.1466   23.4858   13.0178 N.3     434      M_A    0.0000
   4647 O          49.8207   24.4349   12.3697 O.2     434      M_A    0.0000
   4648 H          51.5468   24.3049   13.5916 H       434      M_A    0.0000
   4649 H          51.8831   22.7768   13.8234 H       434      M_A    0.0000
   4650 H          49.5844   23.5944   15.0316 H       434      M_A    0.0000
   4651 H          47.8547   22.6923   13.3762 H       434      M_A    0.0000
   4652 H          47.7428   23.7512   12.2403 H       434      M_A    0.0000
   4653 C          49.7968   21.7874   14.2524 C.3     435      M_A    0.0000
   4654 C          49.0238   21.3773   15.3281 C.3     435      M_A    0.0000
   4655 C          48.0000   22.2918   15.5702 C.2     435      M_A    0.0000
   4656 N          47.2052   21.9881   16.4787 N.3     435      M_A    0.0000
   4657 O          47.8667   23.2546   15.0358 O.2     435      M_A    0.0000
   4658 H          49.4124   21.4971   13.3872 H       435      M_A    0.0000
   4659 H          50.6961   21.3719   14.3028 H       435      M_A    0.0000
   4660 H          49.5717   21.3334   16.1538 H       435      M_A    0.0000
   4661 H          47.0745   21.0970   16.6582 H       435      M_A    0.0000
   4662 H          46.4716   22.5292   16.5620 H       435      M_A    0.0000
   4663 C          48.4611   20.0618   15.1207 C.3     436      M_A    0.0000
   4664 C          49.0061   19.0986   15.9561 C.2     436      M_A    0.0000
   4665 C          48.2631   18.9946   17.1309 C.2     436      M_A    0.0000
   4666 N          48.6296   18.1117   17.9281 N.3     436      M_A    0.0000
   4667 O          47.4062   19.6446   17.4020 O.2     436      M_A    0.0000
   4668 H          47.4758   20.1121   15.2054 H       436      M_A    0.0000
   4669 H          48.6404   19.8299   14.1731 H       436      M_A    0.0000
   4670 H          49.9289   19.3488   16.2204 H       436      M_A    0.0000
   4671 H          49.0532   17.3714   17.5877 H       436      M_A    0.0000
   4672 H          48.0769   17.9681   18.6435 H       436      M_A    0.0000
   4673 C          32.3112   44.3573   22.5312 C.2     437      M_A    0.0000
   4674 C          32.5782   42.9676   23.1271 C.3     437      M_A    0.0000
   4675 C          32.0322   43.6198   25.4392 C.2     437      M_A    0.0000
   4676 N          31.9680   41.9826   26.9072 N.3     437      M_A    0.0000
   4677 O          31.7015   45.4555   26.0425 O.2     437      M_A    0.0000
   4678 H          31.2653   44.6628   22.6537 H       437      M_A    0.0000
   4679 H          32.4954   44.3436   21.4486 H       437      M_A    0.0000
   4680 H          34.2004   42.3036   23.1555 H       437      M_A    0.0000
   4681 H          31.5916   40.4957   26.3762 H       437      M_A    0.0000
   4682 H          31.4170   42.3777   28.3760 H       437      M_A    0.0000
   4683 C          31.0128   41.0952   22.3709 C.3     438      M_A    0.0000
   4684 C          31.9726   39.6926   20.6052 C.3     438      M_A    0.0000
   4685 C          33.3665   37.9109   21.5809 C.2     438      M_A    0.0000
   4686 N          34.2280   36.4771   20.1521 N.3     438      M_A    0.0000
   4687 O          33.7770   37.7205   23.4884 O.2     438      M_A    0.0000
   4688 H          30.5260   40.1542   23.7639 H       438      M_A    0.0000
   4689 H          29.5566   41.8789   21.7891 H       438      M_A    0.0000
   4690 H          33.0159   40.6421   19.5642 H       438      M_A    0.0000
   4691 H          33.4311   36.2110   18.7635 H       438      M_A    0.0000
   4692 H          34.9741   35.1983   20.8043 H       438      M_A    0.0000
   4693 C          30.1705   38.6563   19.1197 C.3     439      M_A    0.0000
   4694 C          31.0773   37.5926   17.1066 C.3     439      M_A    0.0000
   4695 C          29.8325   35.5315   16.5848 C.2     439      M_A    0.0000
   4696 N          30.4314   34.4908   14.7416 N.3     439      M_A    0.0000
   4697 O          28.4129   34.7622   17.6966 O.2     439      M_A    0.0000
   4698 H          29.2085   37.5463   20.0712 H       439      M_A    0.0000
   4699 H          29.0920   39.9641   18.6729 H       439      M_A    0.0000
   4700 H          32.7491   37.1277   17.3563 H       439      M_A    0.0000
   4701 H          31.0726   35.3740   13.5403 H       439      M_A    0.0000
   4702 H          29.4877   33.2550   14.2948 H       439      M_A    0.0000
   4703 C          31.0262   39.1602   15.0895 C.3     440      M_A    0.0000
   4704 C          31.1003   37.9736   12.9465 C.3     440      M_A    0.0000
   4705 C          29.7328   39.1443   11.2646 C.2     440      M_A    0.0000
   4706 N          29.7639   38.2872    9.2388 N.3     440      M_A    0.0000
   4707 O          28.6204   40.7196   11.6170 O.2     440      M_A    0.0000
   4708 H          29.6301   40.2087   15.2106 H       440      M_A    0.0000
   4709 H          32.4253   40.2048   15.2453 H       440      M_A    0.0000
   4710 H          30.4322   36.3613   13.1125 H       440      M_A    0.0000
   4711 H          31.0864   37.4674    8.7771 H       440      M_A    0.0000
   4712 H          29.0309   39.1644    8.0940 H       440      M_A    0.0000
   4713 C          33.4893   37.7116   12.0791 C.3     441      M_A    0.0000
   4714 C          33.6467   36.2478   10.1199 C.3     441      M_A    0.0000
   4715 C          32.4134   37.2151    8.2191 C.2     441      M_A    0.0000
   4716 N          32.5315   36.0944    6.3298 N.3     441      M_A    0.0000
   4717 O          31.3330   38.8492    8.2931 O.2     441      M_A    0.0000
   4718 H          34.1665   39.2957   11.7703 H       441      M_A    0.0000
   4719 H          34.4211   37.0419   13.4045 H       441      M_A    0.0000
   4720 H          32.9200   34.6884   10.4571 H       441      M_A    0.0000
   4721 H          33.8516   35.1893    6.0606 H       441      M_A    0.0000
   4722 H          31.8920   36.8278    5.0374 H       441      M_A    0.0000
   4723 C          36.0713   35.8159    9.4396 C.3     442      M_A    0.0000
   4724 C          36.2749   34.3943    7.4537 C.3     442      M_A    0.0000
   4725 C          34.1959   34.4541    6.1332 C.2     442      M_A    0.0000
   4726 N          34.2255   33.3223    4.2471 N.3     442      M_A    0.0000
   4727 O          32.5536   35.3851    6.6615 O.2     442      M_A    0.0000
   4728 H          36.8938   37.3474    9.2368 H       442      M_A    0.0000
   4729 H          36.8349   35.0397   10.8135 H       442      M_A    0.0000
   4730 H          36.5353   32.7236    7.9170 H       442      M_A    0.0000
   4731 H          35.6522   33.1210    3.5000 H       442      M_A    0.0000
   4732 H          32.9384   33.5228    3.2877 H       442      M_A    0.0000
   4733 C          38.2469   35.0821    5.9818 C.3     443      M_A    0.0000
   4734 C          40.3934   34.2083    6.7787 C.3     443      M_A    0.0000
   4735 C          40.8481   32.0001    5.7854 C.2     443      M_A    0.0000
   4736 N          42.7891   31.1002    6.2972 N.3     443      M_A    0.0000
   4737 O          39.6096   31.0067    4.6355 O.2     443      M_A    0.0000
   4738 H          37.9214   34.6129    4.3274 H       443      M_A    0.0000
   4739 H          38.2740   36.8349    5.9866 H       443      M_A    0.0000
   4740 H          40.3601   33.9867    8.5174 H       443      M_A    0.0000
   4741 H          44.0208   32.0947    6.6554 H       443      M_A    0.0000
   4742 H          43.1715   29.7504    5.4915 H       443      M_A    0.0000
   4743 C          42.3260   35.7972    6.2603 C.3     444      M_A    0.0000
   4744 C          43.3002   36.8142    8.2659 C.3     444      M_A    0.0000
   4745 C          41.7679   36.5834   10.1812 C.2     444      M_A    0.0000
   4746 N          42.5179   37.3409   12.1055 N.3     444      M_A    0.0000
   4747 O          39.9613   35.8273   10.0924 O.2     444      M_A    0.0000
   4748 H          43.5249   34.9528    5.3048 H       444      M_A    0.0000
   4749 H          41.6698   37.0421    5.2150 H       444      M_A    0.0000
   4750 H          43.5555   38.5315    8.0229 H       444      M_A    0.0000
   4751 H          44.1225   37.3474   12.3501 H       444      M_A    0.0000
   4752 H          41.5997   37.0110   13.3960 H       444      M_A    0.0000
   4753 C          45.5675   35.7928    8.8526 C.3     445      M_A    0.0000
   4754 C          47.3981   37.4214    8.8043 C.3     445      M_A    0.0000
   4755 C          49.0748   36.8861   10.5283 C.2     445      M_A    0.0000
   4756 N          50.8557   38.1769   10.5669 N.3     445      M_A    0.0000
   4757 O          48.9075   35.4513   11.8537 O.2     445      M_A    0.0000
   4758 H          45.4510   34.9829   10.3998 H       445      M_A    0.0000
   4759 H          45.8567   34.5304    7.6712 H       445      M_A    0.0000
   4760 H          46.7996   39.0305    9.1592 H       445      M_A    0.0000
   4761 H          51.3190   38.8799    9.1793 H       445      M_A    0.0000
   4762 H          52.0424   37.7064   11.5607 H       445      M_A    0.0000
   4763 C          48.5256   37.5271    6.5139 C.3     446      M_A    0.0000
   4764 C          48.4517   39.7602    5.5070 C.3     446      M_A    0.0000
   4765 C          50.5310   40.9917    5.9859 C.2     446      M_A    0.0000
   4766 N          50.6983   42.9838    5.0679 N.3     446      M_A    0.0000
   4767 O          51.9837   40.3444    7.1321 O.2     446      M_A    0.0000
   4768 H          50.1626   36.9229    6.6498 H       446      M_A    0.0000
   4769 H          47.6747   36.3816    5.4956 H       446      M_A    0.0000
   4770 H          47.1365   40.6987    6.1875 H       446      M_A    0.0000
   4771 H          49.8993   43.2547    3.6813 H       446      M_A    0.0000
   4772 H          52.1381   43.7065    5.2160 H       446      M_A    0.0000
   4773 C          48.0756   39.6600    2.9818 C.3     447      M_A    0.0000
   4774 C          47.2800   41.7792    2.0425 C.3     447      M_A    0.0000
   4775 C          49.1678   43.0959    1.1636 C.2     447      M_A    0.0000
   4776 N          48.6385   44.9893    0.1766 N.3     447      M_A    0.0000
   4777 O          51.0572   42.5971    1.3200 O.2     447      M_A    0.0000
   4778 H          49.5421   39.1070    2.2029 H       447      M_A    0.0000
   4779 H          46.8858   38.4009    2.7132 H       447      M_A    0.0000
   4780 H          46.5145   42.7532    3.2830 H       447      M_A    0.0000
   4781 H          47.1783   45.1034   -0.5227 H       447      M_A    0.0000
   4782 H          49.8516   45.7533   -0.5731 H       447      M_A    0.0000
   4783 C          45.5511   41.4192    0.1960 C.3     448      M_A    0.0000
   4784 C          43.3593   42.3767    0.7300 C.3     448      M_A    0.0000
   4785 C          43.2967   44.7686    0.1430 C.2     448      M_A    0.0000
   4786 N          41.3672   45.7802    0.4480 N.3     448      M_A    0.0000
   4787 O          44.8230   45.8050   -0.5200 O.2     448      M_A    0.0000
   4788 H          46.1855   42.0351   -1.3144 H       448      M_A    0.0000
   4789 H          45.4126   39.6843   -0.0140 H       448      M_A    0.0000
   4790 H          43.0426   42.2668    2.4507 H       448      M_A    0.0000
   4791 H          40.0144   44.8886    0.3521 H       448      M_A    0.0000
   4792 H          41.2690   47.2914   -0.1213 H       448      M_A    0.0000
   4793 C          41.4620   41.1501   -0.4634 C.3     449      M_A    0.0000
   4794 C          39.5048   40.7831    0.9652 C.3     449      M_A    0.0000
   4795 C          39.8741   38.8571    2.4563 C.2     449      M_A    0.0000
   4796 N          38.2651   38.4376    3.8966 N.3     449      M_A    0.0000
   4797 O          41.4455   37.6858    2.4135 O.2     449      M_A    0.0000
   4798 H          41.0512   42.0129   -1.9296 H       449      M_A    0.0000
   4799 H          42.1230   39.6114   -0.9817 H       449      M_A    0.0000
   4800 H          38.0945   40.4105   -0.0073 H       449      M_A    0.0000
   4801 H          37.3407   39.6769    4.3906 H       449      M_A    0.0000
   4802 H          38.5917   37.3039    5.0036 H       449      M_A    0.0000
   4803 C          38.9340   42.8488    2.3565 C.3     450      M_A    0.0000
   4804 C          37.5600   42.3368    4.3201 C.3     450      M_A    0.0000
   4805 C          36.7486   40.0127    4.2230 C.2     450      M_A    0.0000
   4806 N          35.5843   39.3305    5.9603 N.3     450      M_A    0.0000
   4807 O          37.0321   38.7835    2.7224 O.2     450      M_A    0.0000
   4808 H          40.4133   43.6779    2.7893 H       450      M_A    0.0000
   4809 H          38.0700   43.9364    1.2870 H       450      M_A    0.0000
   4810 H          36.1433   43.3686    4.3657 H       450      M_A    0.0000
   4811 H          35.8805   40.0240    7.3976 H       450      M_A    0.0000
   4812 H          35.2236   37.7537    5.9885 H       450      M_A    0.0000
   4813 C          38.8330   42.7112    6.5036 C.3     451      M_A    0.0000
   4814 C          37.3953   43.4688    8.3380 C.2     451      M_A    0.0000
   4815 C          36.5376   41.5434    9.6134 C.2     451      M_A    0.0000
   4816 N          35.3120   42.0294   11.3744 N.3     451      M_A    0.0000
   4817 O          36.8356   39.6625    9.1482 O.2     451      M_A    0.0000
   4818 H          39.7091   41.2533    6.9162 H       451      M_A    0.0000
   4819 H          40.0527   43.9220    6.1582 H       451      M_A    0.0000
   4820 H          36.0003   44.3266    7.7123 H       451      M_A    0.0000
   4821 H          35.5836   43.4415   12.1271 H       451      M_A    0.0000
   4822 H          34.9172   40.7789   12.3218 H       451      M_A    0.0000
   4823 C          35.4183   13.8124   20.0359 C.2     452      M_A    0.0000
   4824 C          35.8425   14.0384   18.7522 C.3     452      M_A    0.0000
   4825 C          36.1603   15.3677   18.5760 C.2     452      M_A    0.0000
   4826 N          36.6128   15.6690   17.4721 N.3     452      M_A    0.0000
   4827 O          36.0181   16.1538   19.3271 O.2     452      M_A    0.0000
   4828 H          35.7131   14.5164   20.6490 H       452      M_A    0.0000
   4829 H          35.8083   12.9796   20.3764 H       452      M_A    0.0000
   4830 H          35.1295   13.8291   18.1122 H       452      M_A    0.0000
   4831 H          37.0601   15.0314   17.0055 H       452      M_A    0.0000
   4832 H          36.9246   16.5148   17.3930 H       452      M_A    0.0000
   4833 C          36.9673   13.2262   18.4089 C.3     453      M_A    0.0000
   4834 C          37.8390   13.0457   19.4513 C.3     453      M_A    0.0000
   4835 C          37.5678   11.8651   20.1083 C.2     453      M_A    0.0000
   4836 N          38.3336   11.5742   21.0264 N.3     453      M_A    0.0000
   4837 O          36.7245   11.2003   19.8859 O.2     453      M_A    0.0000
   4838 H          36.6503   12.3748   18.0442 H       453      M_A    0.0000
   4839 H          37.4196   13.6832   17.6686 H       453      M_A    0.0000
   4840 H          37.7424   13.7662   20.1095 H       453      M_A    0.0000
   4841 H          39.1863   11.8832   20.9852 H       453      M_A    0.0000
   4842 H          38.2240   10.7497   21.3830 H       453      M_A    0.0000
   4843 C          39.2009   13.0521   19.0179 C.3     454      M_A    0.0000
   4844 C          40.0937   12.8924   20.0458 C.3     454      M_A    0.0000
   4845 C          39.7408   11.8142   20.8282 C.2     454      M_A    0.0000
   4846 N          40.5130   11.5431   21.7471 N.3     454      M_A    0.0000
   4847 O          38.8311   11.2152   20.7013 O.2     454      M_A    0.0000
   4848 H          39.3199   12.3757   18.3203 H       454      M_A    0.0000
   4849 H          39.3450   13.9174   18.5798 H       454      M_A    0.0000
   4850 H          40.0911   13.6804   20.6294 H       454      M_A    0.0000
   4851 H          41.3883   11.7627   21.6481 H       454      M_A    0.0000
   4852 H          40.3418   10.7724   22.1894 H       454      M_A    0.0000
   4853 C          41.4316   12.7244   19.5720 C.3     455      M_A    0.0000
   4854 C          42.3639   13.3479   20.3601 C.3     455      M_A    0.0000
   4855 C          42.2230   12.9583   21.6744 C.2     455      M_A    0.0000
   4856 N          43.0532   13.4133   22.4605 N.3     455      M_A    0.0000
   4857 O          41.4280   12.3064   22.0560 O.2     455      M_A    0.0000
   4858 H          41.6188   11.7691   19.4683 H       455      M_A    0.0000
   4859 H          41.4512   13.1014   18.6671 H       455      M_A    0.0000
   4860 H          42.2394   14.3203   20.3367 H       455      M_A    0.0000
   4861 H          43.8744   13.6270   22.1378 H       455      M_A    0.0000
   4862 H          43.0293   13.0717   23.2982 H       455      M_A    0.0000
   4863 C          43.6984   13.0843   19.9216 C.3     456      M_A    0.0000
   4864 C          44.5632   14.1164   20.1785 C.3     456      M_A    0.0000
   4865 C          44.2620   14.7093   21.3855 C.2     456      M_A    0.0000
   4866 N          45.0186   15.6113   21.7433 N.3     456      M_A    0.0000
   4867 O          43.4034   14.4510   22.0168 O.2     456      M_A    0.0000
   4868 H          44.0058   12.2418   20.3143 H       456      M_A    0.0000
   4869 H          43.6431   12.9255   18.9556 H       456      M_A    0.0000
   4870 H          44.4825   14.8119   19.4919 H       456      M_A    0.0000
   4871 H          45.8786   15.5874   21.4534 H       456      M_A    0.0000
   4872 H          44.8882   15.9234   22.5827 H       456      M_A    0.0000
   4873 C          45.9258   13.6852   20.1821 C.3     457      M_A    0.0000
   4874 C          46.7745   14.5779   19.5803 C.3     457      M_A    0.0000
   4875 C          46.6618   15.8205   20.1655 C.2     457      M_A    0.0000
   4876 N          47.4275   16.6848   19.7404 N.3     457      M_A    0.0000
   4877 O          45.9391   16.0852   20.9466 O.2     457      M_A    0.0000
   4878 H          46.1971   13.4833   21.1007 H       457      M_A    0.0000
   4879 H          45.9439   12.8299   19.7029 H       457      M_A    0.0000
   4880 H          46.5439   14.6874   18.6335 H       457      M_A    0.0000
   4881 H          48.2240   16.4176   19.3960 H       457      M_A    0.0000
   4882 H          47.4316   17.4654   20.1980 H       457      M_A    0.0000
   4883 C          48.1349   14.1434   19.6342 C.3     458      M_A    0.0000
   4884 C          48.6235   13.7515   18.4148 C.3     458      M_A    0.0000
   4885 C          48.3703   14.7139   17.4616 C.2     458      M_A    0.0000
   4886 N          48.8231   14.4896   16.3396 N.3     458      M_A    0.0000
   4887 O          47.7887   15.6283   17.6293 O.2     458      M_A    0.0000
   4888 H          48.6818   14.8469   20.0396 H       458      M_A    0.0000
   4889 H          48.1576   13.3907   20.2622 H       458      M_A    0.0000
   4890 H          48.1803   12.9300   18.1143 H       458      M_A    0.0000
   4891 H          49.5676   13.9740   16.2750 H       458      M_A    0.0000
   4892 H          48.7543   15.1686   15.7454 H       458      M_A    0.0000
   4893 C          50.0258   13.4796   18.4619 C.3     459      M_A    0.0000
   4894 C          50.3446   12.2192   18.0270 C.3     459      M_A    0.0000
   4895 C          49.7331   11.2680   18.8146 C.2     459      M_A    0.0000
   4896 N          49.9034   10.0984   18.4723 N.3     459      M_A    0.0000
   4897 O          49.1412   11.4803   19.7129 O.2     459      M_A    0.0000
   4898 H          50.5050   14.1720   17.9625 H       459      M_A    0.0000
   4899 H          50.2950   13.5894   19.3983 H       459      M_A    0.0000
   4900 H          51.3109   12.0661   18.0945 H       459      M_A    0.0000
   4901 H          50.0549    9.9285   17.5934 H       459      M_A    0.0000
   4902 H          49.4137    9.4829   18.9198 H       459      M_A    0.0000
   4903 C          49.9812   12.0165   16.6597 C.3     460      M_A    0.0000
   4904 C          51.0320   11.6120   15.8778 C.2     460      M_A    0.0000
   4905 C          51.1040   10.2363   15.8402 C.2     460      M_A    0.0000
   4906 N          51.9778    9.7648   15.1134 N.3     460      M_A    0.0000
   4907 O          50.4658    9.5566   16.4174 O.2     460      M_A    0.0000
   4908 H          49.2293   11.3911   16.6158 H       460      M_A    0.0000
   4909 H          49.6348   12.8755   16.3380 H       460      M_A    0.0000
   4910 H          51.8811   11.9312   16.2503 H       460      M_A    0.0000
   4911 H          52.2435   10.2514   14.3944 H       460      M_A    0.0000
   4912 H          51.9536    8.8671   15.0017 H       460      M_A    0.0000
   4913 C          24.7519   34.8322   14.2471 C.2     461      M_A    0.0000
   4914 C          25.7035   33.6610   14.8622 C.3     461      M_A    0.0000
   4915 C          24.7967   32.5142   15.6012 C.2     461      M_A    0.0000
   4916 N          25.5305   31.3659   16.1327 N.3     461      M_A    0.0000
   4917 O          23.5047   32.5720   15.7643 O.2     461      M_A    0.0000
   4918 H          23.6651   34.7720   14.6587 H       461      M_A    0.0000
   4919 H          24.6626   34.7076   13.0916 H       461      M_A    0.0000
   4920 H          26.4200   34.0986   15.6709 H       461      M_A    0.0000
   4921 H          26.4592   31.0921   15.6557 H       461      M_A    0.0000
   4922 H          24.9265   30.5541   16.4978 H       461      M_A    0.0000
   4923 C          26.6761   32.9394   13.6706 C.3     462      M_A    0.0000
   4924 C          25.8344   31.9957   12.6428 C.3     462      M_A    0.0000
   4925 C          26.8361   31.3095   11.5431 C.2     462      M_A    0.0000
   4926 N          26.2105   30.3775   10.6053 N.3     462      M_A    0.0000
   4927 O          28.1119   31.5551   11.4373 O.2     462      M_A    0.0000
   4928 H          27.2744   33.7668   13.1123 H       462      M_A    0.0000
   4929 H          27.4688   32.3016   14.2394 H       462      M_A    0.0000
   4930 H          25.0603   32.6304   12.0454 H       462      M_A    0.0000
   4931 H          25.3246   29.8518   10.9272 H       462      M_A    0.0000
   4932 H          26.8853   29.8285    9.9726 H       462      M_A    0.0000
   4933 C          24.9652   30.7843   13.4573 C.3     463      M_A    0.0000
   4934 C          25.1335   29.3114   12.7808 C.3     463      M_A    0.0000
   4935 C          26.6646   28.7624   12.9753 C.2     463      M_A    0.0000
   4936 N          26.9264   27.4132   12.4744 N.3     463      M_A    0.0000
   4937 O          27.6413   29.4420   13.5076 O.2     463      M_A    0.0000
   4938 H          25.2685   30.7854   14.5808 H       463      M_A    0.0000
   4939 H          23.8466   31.1108   13.4287 H       463      M_A    0.0000
   4940 H          24.9360   29.3633   11.6331 H       463      M_A    0.0000
   4941 H          26.1045   26.7144   12.4450 H       463      M_A    0.0000
   4942 H          27.8903   27.0031   12.7195 H       463      M_A    0.0000
   4943 C          24.0371   28.1853   13.4262 C.3     464      M_A    0.0000
   4944 C          24.6467   26.6766   13.5139 C.3     464      M_A    0.0000
   4945 C          25.9989   26.6572   14.4386 C.2     464      M_A    0.0000
   4946 N          26.6029   25.3430   14.6569 N.3     464      M_A    0.0000
   4947 O          26.5683   27.7106   14.9537 O.2     464      M_A    0.0000
   4948 H          23.6627   28.5652   14.4605 H       464      M_A    0.0000
   4949 H          23.1058   28.1989   12.7253 H       464      M_A    0.0000
   4950 H          24.9553   26.2978   12.4555 H       464      M_A    0.0000
   4951 H          25.9590   24.4774   14.6279 H       464      M_A    0.0000
   4952 H          27.4089   25.3121   15.3686 H       464      M_A    0.0000
   4953 C          23.5169   25.5683   14.1316 C.3     465      M_A    0.0000
   4954 C          24.1357   24.0761   14.3461 C.3     465      M_A    0.0000
   4955 C          22.9668   23.0341   14.8272 C.2     465      M_A    0.0000
   4956 N          23.3809   21.6399   14.9836 N.3     465      M_A    0.0000
   4957 O          21.7350   23.3642   15.0973 O.2     465      M_A    0.0000
   4958 H          23.0586   25.9954   15.1124 H       465      M_A    0.0000
   4959 H          22.6429   25.5306   13.3613 H       465      M_A    0.0000
   4960 H          24.9460   24.0858   15.1841 H       465      M_A    0.0000
   4961 H          24.2038   21.2844   14.3827 H       465      M_A    0.0000
   4962 H          22.5890   20.9358   15.1692 H       465      M_A    0.0000
   4963 C          24.8808   23.4873   12.9373 C.3     466      M_A    0.0000
   4964 C          26.2185   22.6075   13.2408 C.3     466      M_A    0.0000
   4965 C          26.3523   21.3779   12.1666 C.2     466      M_A    0.0000
   4966 N          27.5554   20.5547   12.2868 N.3     466      M_A    0.0000
   4967 O          25.4677   21.0796   11.2568 O.2     466      M_A    0.0000
   4968 H          24.1003   22.8925   12.3116 H       466      M_A    0.0000
   4969 H          25.1552   24.4229   12.2985 H       466      M_A    0.0000
   4970 H          26.1595   22.1258   14.3007 H       466      M_A    0.0000
   4971 H          28.4441   21.0114   12.6946 H       466      M_A    0.0000
   4972 H          27.7082   19.8341   11.5029 H       466      M_A    0.0000
   4973 C          27.6272   23.5563   13.2007 C.3     467      M_A    0.0000
   4974 C          28.8663   22.8974   14.0289 C.3     467      M_A    0.0000
   4975 C          29.4982   21.6307   13.2044 C.2     467      M_A    0.0000
   4976 N          30.6689   20.9963   13.8099 N.3     467      M_A    0.0000
   4977 O          29.0213   21.1501   12.0905 O.2     467      M_A    0.0000
   4978 H          27.9102   23.7746   12.0931 H       467      M_A    0.0000
   4979 H          27.3398   24.5860   13.6652 H       467      M_A    0.0000
   4980 H          28.4985   22.4836   15.0548 H       467      M_A    0.0000
   4981 H          31.3057   21.6006   14.4377 H       467      M_A    0.0000
   4982 H          31.1620   20.2543   13.2070 H       467      M_A    0.0000
   4983 C          30.0879   24.0317   14.3565 C.3     468      M_A    0.0000
   4984 C          30.4326   24.1605   15.9440 C.3     468      M_A    0.0000
   4985 C          30.7355   22.6844   16.5867 C.2     468      M_A    0.0000
   4986 N          31.1315   22.6714   17.9948 N.3     468      M_A    0.0000
   4987 O          30.6229   21.5531   15.9490 O.2     468      M_A    0.0000
   4988 H          31.0305   23.7721   13.7253 H       468      M_A    0.0000
   4989 H          29.7022   25.0531   13.9481 H       468      M_A    0.0000
   4990 H          29.5240   24.6025   16.5254 H       468      M_A    0.0000
   4991 H          31.6318   23.5425   18.3893 H       468      M_A    0.0000
   4992 H          31.4577   21.7212   18.3793 H       468      M_A    0.0000
   4993 C          31.7552   25.1886   16.2271 C.3     469      M_A    0.0000
   4994 C          31.3269   26.6145   16.8896 C.3     469      M_A    0.0000
   4995 C          31.1323   26.4593   18.5088 C.2     469      M_A    0.0000
   4996 N          30.8179   27.6901   19.2338 N.3     469      M_A    0.0000
   4997 O          31.2109   25.3373   19.1677 O.2     469      M_A    0.0000
   4998 H          32.5448   24.6277   16.8722 H       469      M_A    0.0000
   4999 H          32.2580   25.3656   15.1905 H       469      M_A    0.0000
   5000 H          30.3053   26.9752   16.4593 H       469      M_A    0.0000
   5001 H          31.1652   28.6250   18.8213 H       469      M_A    0.0000
   5002 H          30.8213   27.6137   20.3068 H       469      M_A    0.0000
   5003 C          32.4642   27.8343   16.5657 C.3     470      M_A    0.0000
   5004 C          31.8376   29.0898   15.7371 C.3     470      M_A    0.0000
   5005 C          30.7886   29.9293   16.6743 C.2     470      M_A    0.0000
   5006 N          30.2111   31.1286   16.0678 N.3     470      M_A    0.0000
   5007 O          30.4263   29.5909   17.8800 O.2     470      M_A    0.0000
   5008 H          32.9568   28.1732   17.5642 H       470      M_A    0.0000
   5009 H          33.3136   27.3315   15.9457 H       470      M_A    0.0000
   5010 H          31.2368   28.7109   14.8128 H       470      M_A    0.0000
   5011 H          30.7853   31.6415   15.3115 H       470      M_A    0.0000
   5012 H          29.6286   31.7499   16.7250 H       470      M_A    0.0000
   5013 C          33.0445   30.1343   15.1548 C.3     471      M_A    0.0000
   5014 C          33.3178   29.9684   13.5569 C.3     471      M_A    0.0000
   5015 C          32.4562   31.0746   12.7097 C.2     471      M_A    0.0000
   5016 N          32.6716   31.0781   11.2629 N.3     471      M_A    0.0000
   5017 O          31.5967   31.9081   13.2252 O.2     471      M_A    0.0000
   5018 H          32.7727   31.2295   15.4393 H       471      M_A    0.0000
   5019 H          34.0119   29.8801   15.7533 H       471      M_A    0.0000
   5020 H          32.9724   28.9173   13.1897 H       471      M_A    0.0000
   5021 H          33.6274   30.7418   10.8913 H       471      M_A    0.0000
   5022 H          32.2101   31.8869   10.7242 H       471      M_A    0.0000
   5023 C          34.9667   30.1144   13.1744 C.3     472      M_A    0.0000
   5024 C          35.6641   28.6913   12.7952 C.3     472      M_A    0.0000
   5025 C          36.7474   28.8886   11.5823 C.2     472      M_A    0.0000
   5026 N          37.4981   27.6936   11.1976 N.3     472      M_A    0.0000
   5027 O          36.9566   30.0033   10.9398 O.2     472      M_A    0.0000
   5028 H          35.0948   30.9022   12.3275 H       472      M_A    0.0000
   5029 H          35.4801   30.5718   14.1156 H       472      M_A    0.0000
   5030 H          34.8649   27.9326   12.4148 H       472      M_A    0.0000
   5031 H          37.6623   26.9343   11.9468 H       472      M_A    0.0000
   5032 H          38.2990   27.8508   10.4969 H       472      M_A    0.0000
   5033 C          36.4301   27.9806   14.1348 C.3     473      M_A    0.0000
   5034 C          37.9683   27.5364   13.8310 C.3     473      M_A    0.0000
   5035 C          38.5206   28.2716   12.4753 C.2     473      M_A    0.0000
   5036 N          39.9190   28.0117   12.1339 N.3     473      M_A    0.0000
   5037 O          37.8062   29.0289   11.6908 O.2     473      M_A    0.0000
   5038 H          36.3562   28.7019   15.0451 H       473      M_A    0.0000
   5039 H          35.7933   27.0458   14.4162 H       473      M_A    0.0000
   5040 H          38.0329   26.3877   13.6430 H       473      M_A    0.0000
   5041 H          40.6026   27.7797   12.9361 H       473      M_A    0.0000
   5042 H          40.3180   28.5958   11.3234 H       473      M_A    0.0000
   5043 C          39.0017   27.8887   15.1328 C.3     474      M_A    0.0000
   5044 C          39.0169   26.7229   16.2712 C.3     474      M_A    0.0000
   5045 C          39.2110   25.2498   15.5813 C.2     474      M_A    0.0000
   5046 N          39.3152   24.1215   16.5063 N.3     474      M_A    0.0000
   5047 O          39.2498   25.0238   14.2980 O.2     474      M_A    0.0000
   5048 H          40.0681   28.1137   14.7248 H       474      M_A    0.0000
   5049 H          38.6181   28.8892   15.5917 H       474      M_A    0.0000
   5050 H          38.0019   26.6970   16.8440 H       474      M_A    0.0000
   5051 H          39.7098   24.3090   17.4931 H       474      M_A    0.0000
   5052 H          39.5745   23.1764   16.0625 H       474      M_A    0.0000
   5053 C          40.2364   26.9771   17.4266 C.3     475      M_A    0.0000
   5054 C          39.6650   27.0714   18.9498 C.3     475      M_A    0.0000
   5055 C          39.7657   25.6143   19.6915 C.2     475      M_A    0.0000
   5056 N          39.3507   25.5828   21.0938 N.3     475      M_A    0.0000
   5057 O          40.1547   24.5091   19.1201 O.2     475      M_A    0.0000
   5058 H          41.0473   26.1498   17.3155 H       475      M_A    0.0000
   5059 H          40.7589   27.9771   17.1341 H       475      M_A    0.0000
   5060 H          38.5388   27.3721   18.9464 H       475      M_A    0.0000
   5061 H          39.4489   26.4885   21.6725 H       475      M_A    0.0000
   5062 H          39.5409   24.6620   21.6164 H       475      M_A    0.0000
   5063 C          40.4909   28.2378   19.8685 C.3     476      M_A    0.0000
   5064 C          39.4941   29.1999   20.7265 C.2     476      M_A    0.0000
   5065 C          39.2374   28.5747   22.2188 C.2     476      M_A    0.0000
   5066 N          38.4148   29.3853   23.1165 N.3     476      M_A    0.0000
   5067 O          39.6841   27.4228   22.6345 O.2     476      M_A    0.0000
   5068 H          41.2744   27.7070   20.5458 H       476      M_A    0.0000
   5069 H          41.1050   28.8751   19.1099 H       476      M_A    0.0000
   5070 H          38.4528   29.2762   20.2081 H       476      M_A    0.0000
   5071 H          38.4107   30.4551   22.9738 H       476      M_A    0.0000
   5072 H          38.3563   29.0414   24.1341 H       476      M_A    0.0000
   5073 C          81.3771   18.0955    6.1653 C.2     477      M_A    0.0000
   5074 C          80.2326   17.6800    5.7330 C.3     477      M_A    0.0000
   5075 C          79.9274   16.5406    6.2768 C.2     477      M_A    0.0000
   5076 N          78.8876   16.1096    5.9971 N.3     477      M_A    0.0000
   5077 O          80.5430   16.0000    6.9069 O.2     477      M_A    0.0000
   5078 H          81.3314   18.3867    7.0397 H       477      M_A    0.0000
   5079 H          81.6565   18.8243    5.6704 H       477      M_A    0.0000
   5080 H          80.2616   17.5420    4.8195 H       477      M_A    0.0000
   5081 H          78.2679   16.6599    5.7843 H       477      M_A    0.0000
   5082 H          78.6441   15.4181    6.4330 H       477      M_A    0.0000
   5083 C          79.2503   18.5713    5.9681 C.3     478      M_A    0.0000
   5084 C          79.2023   18.9605    7.1992 C.3     478      M_A    0.0000
   5085 C          80.2544   19.6621    7.4958 C.2     478      M_A    0.0000
   5086 N          80.2788   20.1089    8.5658 N.3     478      M_A    0.0000
   5087 O          81.0566   19.8243    6.8646 O.2     478      M_A    0.0000
   5088 H          79.3381   19.2806    5.3845 H       478      M_A    0.0000
   5089 H          78.4598   18.1511    5.7383 H       478      M_A    0.0000
   5090 H          79.1957   18.2330    7.7694 H       478      M_A    0.0000
   5091 H          79.5322   20.2776    8.9485 H       478      M_A    0.0000
   5092 H          80.9154   20.6538    8.7250 H       478      M_A    0.0000
   5093 C          78.0920   19.6777    7.4591 C.3     479      M_A    0.0000
   5094 C          77.3115   19.1109    8.3188 C.3     479      M_A    0.0000
   5095 C          78.0049   18.4514    9.1971 C.2     479      M_A    0.0000
   5096 N          77.3971   17.9526   10.0497 N.3     479      M_A    0.0000
   5097 O          79.0309   18.3289    9.1726 O.2     479      M_A    0.0000
   5098 H          78.3348   20.5286    7.7209 H       479      M_A    0.0000
   5099 H          77.6538   19.7770    6.6515 H       479      M_A    0.0000
   5100 H          76.7577   18.5002    7.9008 H       479      M_A    0.0000
   5101 H          76.6526   18.3092   10.2749 H       479      M_A    0.0000
   5102 H          77.8574   17.6105   10.6811 H       479      M_A    0.0000
   5103 C          76.5182   20.0017    8.9447 C.3     480      M_A    0.0000
   5104 C          75.2592   19.7497    8.7996 C.3     480      M_A    0.0000
   5105 C          74.5423   20.6851    9.3456 C.2     480      M_A    0.0000
   5106 N          73.3942   20.5811    9.2184 N.3     480      M_A    0.0000
   5107 O          74.9183   21.4805    9.8881 O.2     480      M_A    0.0000
   5108 H          76.7606   20.0519    9.8336 H       480      M_A    0.0000
   5109 H          76.7193   20.8271    8.5808 H       480      M_A    0.0000
   5110 H          75.0359   18.9590    9.2231 H       480      M_A    0.0000
   5111 H          73.1016   20.1674    8.5288 H       480      M_A    0.0000
   5112 H          72.9306   21.2461    9.4838 H       480      M_A    0.0000
   5113 C          74.9172   19.6155    7.5036 C.3     481      M_A    0.0000
   5114 C          73.6405   19.6542    7.3092 C.3     481      M_A    0.0000
   5115 C          73.3668   20.2900    6.2101 C.2     481      M_A    0.0000
   5116 N          72.2460   20.3293    5.9146 N.3     481      M_A    0.0000
   5117 O          74.0617   20.7669    5.6118 O.2     481      M_A    0.0000
   5118 H          75.3624   20.2516    7.0049 H       481      M_A    0.0000
   5119 H          75.2540   18.7992    7.2308 H       481      M_A    0.0000
   5120 H          73.2216   20.1113    7.9947 H       481      M_A    0.0000
   5121 H          71.7383   19.6919    6.1760 H       481      M_A    0.0000
   5122 H          72.0775   20.6532    5.1438 H       481      M_A    0.0000
   5123 C          73.0988   18.4215    7.2659 C.3     482      M_A    0.0000
   5124 C          71.8238   18.4347    7.0564 C.3     482      M_A    0.0000
   5125 C          71.1926   17.9037    8.0598 C.2     482      M_A    0.0000
   5126 N          70.0348   17.9207    7.9946 N.3     482      M_A    0.0000
   5127 O          71.6439   17.4612    8.8776 O.2     482      M_A    0.0000
   5128 H          73.5470   17.9150    6.6382 H       482      M_A    0.0000
   5129 H          73.2809   18.0305    8.0832 H       482      M_A    0.0000
   5130 H          71.6125   17.9318    6.3102 H       482      M_A    0.0000
   5131 H          69.6664   18.5468    7.5424 H       482      M_A    0.0000
   5132 H          69.6208   17.6691    8.6966 H       482      M_A    0.0000
   5133 C          71.3608   19.6808    6.8387 C.3     483      M_A    0.0000
   5134 C          70.2707   19.7031    6.1455 C.3     483      M_A    0.0000
   5135 C          70.4110   19.0116    5.0549 C.2     483      M_A    0.0000
   5136 N          69.4658   18.9209    4.3889 N.3     483      M_A    0.0000
   5137 O          71.2910   18.5687    4.7423 O.2     483      M_A    0.0000
   5138 H          71.2651   20.1146    7.6475 H       483      M_A    0.0000
   5139 H          72.0311   20.1304    6.3884 H       483      M_A    0.0000
   5140 H          70.0661   20.5676    5.8904 H       483      M_A    0.0000
   5141 H          68.7002   18.9679    4.7683 H       483      M_A    0.0000
   5142 H          69.5275   18.3827    3.7301 H       483      M_A    0.0000
   5143 C          69.2180   19.2367    6.8448 C.3     484      M_A    0.0000
   5144 C          68.6902   18.1793    6.3224 C.3     484      M_A    0.0000
   5145 C          69.5645   17.5422    5.6036 C.2     484      M_A    0.0000
   5146 N          69.2039   16.5435    5.1370 N.3     484      M_A    0.0000
   5147 O          70.5253   17.8701    5.4095 O.2     484      M_A    0.0000
   5148 H          69.4727   19.0992    7.7210 H       484      M_A    0.0000
   5149 H          68.5981   19.9219    6.8663 H       484      M_A    0.0000
   5150 H          67.9950   18.4087    5.7581 H       484      M_A    0.0000
   5151 H          68.5875   16.1096    5.5419 H       484      M_A    0.0000
   5152 H          69.8055   16.0751    4.7545 H       484      M_A    0.0000
   5153 C          68.1847   17.3525    7.2581 C.3     485      M_A    0.0000
   5154 C          66.9109   17.4923    7.4239 C.3     485      M_A    0.0000
   5155 C          66.3567   16.3454    7.6780 C.2     485      M_A    0.0000
   5156 N          65.2189   16.3723    7.9011 N.3     485      M_A    0.0000
   5157 O          66.8469   15.4354    7.6727 O.2     485      M_A    0.0000
   5158 H          68.4128   16.4830    7.0499 H       485      M_A    0.0000
   5159 H          68.6293   17.5492    8.0441 H       485      M_A    0.0000
   5160 H          66.5170   17.8156    6.6528 H       485      M_A    0.0000
   5161 H          64.8917   17.0877    8.2379 H       485      M_A    0.0000
   5162 H          64.8770   15.6386    8.1701 H       485      M_A    0.0000
   5163 C          66.6228   18.3627    8.4109 C.3     486      M_A    0.0000
   5164 C          66.1696   17.7895    9.4766 C.3     486      M_A    0.0000
   5165 C          65.9099   16.5381    9.2445 C.2     486      M_A    0.0000
   5166 N          65.5515   15.9187   10.1571 N.3     486      M_A    0.0000
   5167 O          65.9799   16.0790    8.3211 O.2     486      M_A    0.0000
   5168 H          67.3667   18.8798    8.5862 H       486      M_A    0.0000
   5169 H          65.9881   18.9407    8.0685 H       486      M_A    0.0000
   5170 H          65.3771   18.1826    9.7443 H       486      M_A    0.0000
   5171 H          65.8091   16.1633   10.9357 H       486      M_A    0.0000
   5172 H          65.4825   15.0781   10.0299 H       486      M_A    0.0000
   5173 C          67.0299   17.8894   10.5083 C.3     487      M_A    0.0000
   5174 C          66.5536   18.5630   11.5027 C.2     487      M_A    0.0000
   5175 C          65.9536   17.7732   12.3413 C.2     487      M_A    0.0000
   5176 N          65.5406   18.2755   13.3017 N.3     487      M_A    0.0000
   5177 O          65.8067   16.7598   12.2008 O.2     487      M_A    0.0000
   5178 H          67.3000   17.0440   10.7611 H       487      M_A    0.0000
   5179 H          67.7845   18.3070   10.1760 H       487      M_A    0.0000
   5180 H          65.9229   19.1718   11.2096 H       487      M_A    0.0000
   5181 H          65.9311   18.9818   13.5861 H       487      M_A    0.0000
   5182 H          65.2417   17.7441   13.8981 H       487      M_A    0.0000
   5183 C          29.2176   40.6867   34.6808 C.2     488      M_A    0.0000
   5184 C          28.3095   39.6798   33.7309 C.3     488      M_A    0.0000
   5185 C          26.8650   39.3217   34.4758 C.2     488      M_A    0.0000
   5186 N          25.9223   38.4827   33.6911 N.3     488      M_A    0.0000
   5187 O          26.5247   39.7028   35.6976 O.2     488      M_A    0.0000
   5188 H          29.4471   41.7147   34.1438 H       488      M_A    0.0000
   5189 H          30.2716   40.1940   34.9013 H       488      M_A    0.0000
   5190 H          28.8716   38.6517   33.5589 H       488      M_A    0.0000
   5191 H          25.9747   38.5338   32.5971 H       488      M_A    0.0000
   5192 H          24.9253   38.3603   34.1216 H       488      M_A    0.0000
   5193 C          28.0060   40.3593   32.1735 C.3     489      M_A    0.0000
   5194 C          29.1430   39.9364   31.0470 C.3     489      M_A    0.0000
   5195 C          29.2069   41.0696   29.8298 C.2     489      M_A    0.0000
   5196 N          30.2442   40.8449   28.7897 N.3     489      M_A    0.0000
   5197 O          28.3978   42.1121   29.7184 O.2     489      M_A    0.0000
   5198 H          26.9125   40.0699   31.8294 H       489      M_A    0.0000
   5199 H          27.9989   41.5343   32.3207 H       489      M_A    0.0000
   5200 H          28.8621   38.9035   30.5403 H       489      M_A    0.0000
   5201 H          31.1509   40.2986   29.0753 H       489      M_A    0.0000
   5202 H          30.3760   41.6553   28.0684 H       489      M_A    0.0000
   5203 C          30.7093   39.7490   31.7476 C.3     490      M_A    0.0000
   5204 C          31.8805   39.3892   30.6343 C.3     490      M_A    0.0000
   5205 C          32.4954   40.7829   29.9641 C.2     490      M_A    0.0000
   5206 N          33.6114   40.6002   29.0000 N.3     490      M_A    0.0000
   5207 O          32.0479   42.0053   30.2078 O.2     490      M_A    0.0000
   5208 H          30.9742   40.7173   32.3721 H       490      M_A    0.0000
   5209 H          30.6162   38.8704   32.5360 H       490      M_A    0.0000
   5210 H          31.4271   38.7515   29.7453 H       490      M_A    0.0000
   5211 H          34.2551   39.7204   29.1172 H       490      M_A    0.0000
   5212 H          34.1028   41.5167   28.6641 H       490      M_A    0.0000
   5213 C          33.1634   38.4614   31.3219 C.3     491      M_A    0.0000
   5214 C          34.2091   37.8584   30.1890 C.3     491      M_A    0.0000
   5215 C          35.7789   38.2520   30.5770 C.2     491      M_A    0.0000
   5216 N          36.8256   37.7037   29.6757 N.3     491      M_A    0.0000
   5217 O          36.1410   39.0223   31.5915 O.2     491      M_A    0.0000
   5218 H          33.7202   39.1122   32.1369 H       491      M_A    0.0000
   5219 H          32.6495   37.5729   31.9125 H       491      M_A    0.0000
   5220 H          33.9888   38.3320   29.1261 H       491      M_A    0.0000
   5221 H          36.6120   36.7670   29.1474 H       491      M_A    0.0000
   5222 H          37.8578   37.8480   30.0046 H       491      M_A    0.0000
   5223 C          34.0649   36.1465   30.0218 C.3     492      M_A    0.0000
   5224 C          35.0617   35.5208   28.8575 C.3     492      M_A    0.0000
   5225 C          34.7445   33.9034   28.6266 C.2     492      M_A    0.0000
   5226 N          35.5237   33.2380   27.5504 N.3     492      M_A    0.0000
   5227 O          33.8874   33.1876   29.3385 O.2     492      M_A    0.0000
   5228 H          34.2388   35.6371   31.0744 H       492      M_A    0.0000
   5229 H          32.9336   35.9354   29.7428 H       492      M_A    0.0000
   5230 H          36.1948   35.6044   29.1917 H       492      M_A    0.0000
   5231 H          35.8716   33.8516   26.7109 H       492      M_A    0.0000
   5232 H          35.2215   32.2159   27.3087 H       492      M_A    0.0000
   5233 C          34.9114   36.3611   27.3574 C.3     493      M_A    0.0000
   5234 C          35.6668   35.5904   26.1020 C.3     493      M_A    0.0000
   5235 C          35.9776   36.6590   24.8645 C.2     493      M_A    0.0000
   5236 N          36.7230   36.1064   23.7038 N.3     493      M_A    0.0000
   5237 O          35.5900   37.9250   24.8380 O.2     493      M_A    0.0000
   5238 H          33.7669   36.5555   27.1336 H       493      M_A    0.0000
   5239 H          35.3942   37.4291   27.5265 H       493      M_A    0.0000
   5240 H          34.9713   34.7416   25.6565 H       493      M_A    0.0000
   5241 H          37.4014   35.2634   23.8807 H       493      M_A    0.0000
   5242 H          37.0439   36.8355   22.9556 H       493      M_A    0.0000
   5243 C          37.1369   34.8340   26.5979 C.3     494      M_A    0.0000
   5244 C          38.1889   34.5746   25.3462 C.3     494      M_A    0.0000
   5245 C          39.0788   33.1932   25.6098 C.2     494      M_A    0.0000
   5246 N          40.0114   32.8059   24.5195 N.3     494      M_A    0.0000
   5247 O          39.0296   32.4552   26.7083 O.2     494      M_A    0.0000
   5248 H          37.6282   35.4701   27.4650 H       494      M_A    0.0000
   5249 H          36.8285   33.8013   27.0886 H       494      M_A    0.0000
   5250 H          38.9603   35.4689   25.2596 H       494      M_A    0.0000
   5251 H          39.7610   33.1072   23.4955 H       494      M_A    0.0000
   5252 H          40.4940   31.8318   24.6319 H       494      M_A    0.0000
   5253 C          37.3735   34.4586   23.8294 C.3     495      M_A    0.0000
   5254 C          38.3814   34.6640   22.5322 C.3     495      M_A    0.0000
   5255 C          38.7301   33.1974   21.8271 C.2     495      M_A    0.0000
   5256 N          39.5691   33.2511   20.6018 N.3     495      M_A    0.0000
   5257 O          38.3416   32.0194   22.2910 O.2     495      M_A    0.0000
   5258 H          36.7904   33.4314   23.7790 H       495      M_A    0.0000
   5259 H          36.5429   35.3026   23.8347 H       495      M_A    0.0000
   5260 H          39.4126   35.1332   22.8773 H       495      M_A    0.0000
   5261 H          39.5236   34.1565   19.9851 H       495      M_A    0.0000
   5262 H          39.6854   32.3065   20.0647 H       495      M_A    0.0000
   5263 C          37.7085   35.7292   21.3525 C.3     496      M_A    0.0000
   5264 C          38.7661   36.9028   20.8577 C.3     496      M_A    0.0000
   5265 C          40.3366   36.4248   21.1313 C.2     496      M_A    0.0000
   5266 N          41.3898   37.3617   20.6609 N.3     496      M_A    0.0000
   5267 O          40.6952   35.3090   21.7479 O.2     496      M_A    0.0000
   5268 H          37.2960   35.0935   20.4450 H       496      M_A    0.0000
   5269 H          36.7596   36.2258   21.8579 H       496      M_A    0.0000
   5270 H          38.5982   37.9002   21.4739 H       496      M_A    0.0000
   5271 H          41.1576   38.0135   19.8103 H       496      M_A    0.0000
   5272 H          42.4157   36.9893   20.7178 H       496      M_A    0.0000
   5273 C          38.5619   37.2961   19.1896 C.3     497      M_A    0.0000
   5274 C          37.6525   38.6585   18.9495 C.3     497      M_A    0.0000
   5275 C          36.6514   38.9278   20.2515 C.2     497      M_A    0.0000
   5276 N          35.8329   40.1668   20.1935 N.3     497      M_A    0.0000
   5277 O          36.5221   38.1180   21.2913 O.2     497      M_A    0.0000
   5278 H          39.6239   37.3762   18.6762 H       497      M_A    0.0000
   5279 H          38.0311   36.3618   18.6918 H       497      M_A    0.0000
   5280 H          36.9553   38.5310   18.0007 H       497      M_A    0.0000
   5281 H          36.2225   41.0157   19.6194 H       497      M_A    0.0000
   5282 H          35.2794   40.4125   21.1033 H       497      M_A    0.0000
   5283 C          38.6341   40.0514   18.6749 C.3     498      M_A    0.0000
   5284 C          39.7963   40.2665   19.8341 C.3     498      M_A    0.0000
   5285 C          39.8345   38.9642   20.8696 C.2     498      M_A    0.0000
   5286 N          40.8895   38.9994   21.9156 N.3     498      M_A    0.0000
   5287 O          38.9919   37.9430   20.8382 O.2     498      M_A    0.0000
   5288 H          39.0973   39.9926   17.5887 H       498      M_A    0.0000
   5289 H          37.8973   40.9784   18.6630 H       498      M_A    0.0000
   5290 H          39.5556   41.2215   20.4918 H       498      M_A    0.0000
   5291 H          41.8110   39.5529   21.7000 H       498      M_A    0.0000
   5292 H          41.0012   38.0874   22.5074 H       498      M_A    0.0000
   5293 C          41.3607   40.5056   19.1451 C.3     499      M_A    0.0000
   5294 C          42.5158   39.5135   19.7951 C.3     499      M_A    0.0000
   5295 C          44.0270   39.9387   19.2426 C.2     499      M_A    0.0000
   5296 N          45.1643   39.1697   19.8114 N.3     499      M_A    0.0000
   5297 O          44.2698   40.8721   18.3351 O.2     499      M_A    0.0000
   5298 H          41.2896   40.3924   17.9704 H       499      M_A    0.0000
   5299 H          41.6407   41.6387   19.3450 H       499      M_A    0.0000
   5300 H          42.3327   38.3909   19.4655 H       499      M_A    0.0000
   5301 H          45.0493   38.7465   20.8163 H       499      M_A    0.0000
   5302 H          46.1610   39.5362   19.5530 H       499      M_A    0.0000
   5303 C          42.4991   39.5452   21.5207 C.3     500      M_A    0.0000
   5304 C          43.4927   38.4094   22.2014 C.3     500      M_A    0.0000
   5305 C          44.6492   39.1398   23.1494 C.2     500      M_A    0.0000
   5306 N          45.5618   38.2222   23.8798 N.3     500      M_A    0.0000
   5307 O          44.8196   40.4477   23.2684 O.2     500      M_A    0.0000
   5308 H          42.7558   40.6380   21.8920 H       500      M_A    0.0000
   5309 H          41.3772   39.3483   21.8445 H       500      M_A    0.0000
   5310 H          44.0686   37.8043   21.3619 H       500      M_A    0.0000
   5311 H          45.1879   37.2262   24.1447 H       500      M_A    0.0000
   5312 H          46.2304   38.6951   24.6035 H       500      M_A    0.0000
   5313 C          42.6127   37.2605   23.1421 C.3     501      M_A    0.0000
   5314 C          42.7417   37.5197   24.7721 C.3     501      M_A    0.0000
   5315 C          42.3336   39.0891   25.1466 C.2     501      M_A    0.0000
   5316 N          42.3362   39.4313   26.5927 N.3     501      M_A    0.0000
   5317 O          42.0424   40.0307   24.2620 O.2     501      M_A    0.0000
   5318 H          41.4862   37.2457   22.7836 H       501      M_A    0.0000
   5319 H          43.0549   36.1975   22.8647 H       501      M_A    0.0000
   5320 H          43.8589   37.3602   25.1312 H       501      M_A    0.0000
   5321 H          42.1377   38.6287   27.3128 H       501      M_A    0.0000
   5322 H          41.9398   40.4174   26.8475 H       501      M_A    0.0000
   5323 C          41.7562   36.4318   25.6801 C.3     502      M_A    0.0000
   5324 C          42.5313   35.7993   26.9991 C.3     502      M_A    0.0000
   5325 C          41.4798   35.6601   28.2816 C.2     502      M_A    0.0000
   5326 N          42.0352   35.0333   29.5092 N.3     502      M_A    0.0000
   5327 O          40.2255   36.0851   28.2859 O.2     502      M_A    0.0000
   5328 H          40.7488   36.9750   25.9765 H       502      M_A    0.0000
   5329 H          41.4492   35.5636   24.9356 H       502      M_A    0.0000
   5330 H          43.4074   36.5151   27.3492 H       502      M_A    0.0000
   5331 H          42.8557   34.3151   29.3953 H       502      M_A    0.0000
   5332 H          41.3128   34.8195   30.3009 H       502      M_A    0.0000
   5333 C          43.2374   34.2615   26.6587 C.3     503      M_A    0.0000
   5334 C          42.3771   32.9967   27.2917 C.3     503      M_A    0.0000
   5335 C          41.2396   33.5492   28.3737 C.2     503      M_A    0.0000
   5336 N          40.3471   32.5153   28.9592 N.3     503      M_A    0.0000
   5337 O          41.1023   34.8100   28.7549 O.2     503      M_A    0.0000
   5338 H          43.3896   34.1535   25.4912 H       503      M_A    0.0000
   5339 H          44.3251   34.2860   27.1262 H       503      M_A    0.0000
   5340 H          43.0920   32.2650   27.8884 H       503      M_A    0.0000
   5341 H          40.1468   31.6131   28.3694 H       503      M_A    0.0000
   5342 H          39.5172   32.8917   29.5626 H       503      M_A    0.0000
   5343 C          41.6037   32.0617   26.0642 C.3     504      M_A    0.0000
   5344 C          41.9012   30.4387   26.1989 C.2     504      M_A    0.0000
   5345 C          40.7323   29.7074   27.1309 C.2     504      M_A    0.0000
   5346 N          40.8430   28.2318   27.2681 N.3     504      M_A    0.0000
   5347 O          39.7557   30.3418   27.7614 O.2     504      M_A    0.0000
   5348 H          40.4459   32.3013   26.0644 H       504      M_A    0.0000
   5349 H          42.0178   32.4651   25.0307 H       504      M_A    0.0000
   5350 H          42.9386   30.2497   26.7380 H       504      M_A    0.0000
   5351 H          41.3224   27.6730   26.4556 H       504      M_A    0.0000
   5352 H          40.0044   27.7375   27.7648 H       504      M_A    0.0000
   5353 C          17.0587   40.7229   32.2105 C.2     505      M_A    0.0000
   5354 C          15.9964   40.7208   31.1019 C.3     505      M_A    0.0000
   5355 C          14.0766   41.4474   31.6833 C.2     505      M_A    0.0000
   5356 N          12.7564   41.4945   30.3108 N.3     505      M_A    0.0000
   5357 O          13.6546   41.9379   33.2527 O.2     505      M_A    0.0000
   5358 H          17.1311   41.6972   32.7082 H       505      M_A    0.0000
   5359 H          18.0508   40.5307   31.7805 H       505      M_A    0.0000
   5360 H          15.8092   39.2768   30.6724 H       505      M_A    0.0000
   5361 H          13.1893   41.6458   28.9822 H       505      M_A    0.0000
   5362 H          11.5534   42.1296   30.6459 H       505      M_A    0.0000
   5363 C          16.7095   41.8393   29.3310 C.3     506      M_A    0.0000
   5364 C          18.1448   43.3280   29.8081 C.3     506      M_A    0.0000
   5365 C          19.4738   42.6262   31.3223 C.2     506      M_A    0.0000
   5366 N          20.8874   43.8105   31.7999 N.3     506      M_A    0.0000
   5367 O          19.3341   41.1389   32.1287 O.2     506      M_A    0.0000
   5368 H          17.2296   40.8592   28.2986 H       506      M_A    0.0000
   5369 H          15.4812   42.4817   28.7120 H       506      M_A    0.0000
   5370 H          17.4636   44.5675   30.3599 H       506      M_A    0.0000
   5371 H          21.3485   44.7152   30.8281 H       506      M_A    0.0000
   5372 H          21.8560   43.2837   32.6641 H       506      M_A    0.0000
   5373 C          19.3062   43.9590   28.0338 C.3     507      M_A    0.0000
   5374 C          20.4881   45.6867   28.3827 C.3     507      M_A    0.0000
   5375 C          21.7362   45.4057   30.0899 C.2     507      M_A    0.0000
   5376 N          22.9349   46.8325   30.4856 N.3     507      M_A    0.0000
   5377 O          21.7044   44.0472   31.1074 O.2     507      M_A    0.0000
   5378 H          20.1383   42.7916   27.5418 H       507      M_A    0.0000
   5379 H          18.2916   44.2361   26.9392 H       507      M_A    0.0000
   5380 H          19.6048   46.8862   28.6755 H       507      M_A    0.0000
   5381 H          23.3737   47.6410   29.4230 H       507      M_A    0.0000
   5382 H          23.8705   46.5778   31.4968 H       507      M_A    0.0000
   5383 C          21.7331   46.2077   26.6293 C.3     508      M_A    0.0000
   5384 C          22.5619   48.1579   26.7458 C.3     508      M_A    0.0000
   5385 C          23.6145   48.4137   28.5837 C.2     508      M_A    0.0000
   5386 N          24.5033   50.0839   28.8058 N.3     508      M_A    0.0000
   5387 O          23.6782   47.2709   29.8375 O.2     508      M_A    0.0000
   5388 H          22.7998   45.1475   26.4428 H       508      M_A    0.0000
   5389 H          20.8251   46.1009   25.4175 H       508      M_A    0.0000
   5390 H          21.4641   49.2060   26.7174 H       508      M_A    0.0000
   5391 H          24.9336   50.7621   27.6524 H       508      M_A    0.0000
   5392 H          25.3332   50.1863   29.9298 H       508      M_A    0.0000
   5393 C          23.9150   48.5865   25.0484 C.3     509      M_A    0.0000
   5394 C          25.9187   48.9437   25.6497 C.3     509      M_A    0.0000
   5395 C          26.5936   47.3977   26.9558 C.2     509      M_A    0.0000
   5396 N          28.4111   47.5170   27.5137 N.3     509      M_A    0.0000
   5397 O          25.6319   46.1264   27.5396 O.2     509      M_A    0.0000
   5398 H          23.8175   47.4620   24.0370 H       509      M_A    0.0000
   5399 H          23.3531   49.8160   24.3578 H       509      M_A    0.0000
   5400 H          26.0191   50.2472   26.4213 H       509      M_A    0.0000
   5401 H          29.3237   48.1601   26.6599 H       509      M_A    0.0000
   5402 H          28.9016   46.4157   28.2273 H       509      M_A    0.0000
   5403 C          27.2876   49.1047   23.9189 C.3     510      M_A    0.0000
   5404 C          28.5306   47.4015   23.6782 C.3     510      M_A    0.0000
   5405 C          30.1074   47.4185   25.1152 C.2     510      M_A    0.0000
   5406 N          31.2626   45.9038   25.0978 N.3     510      M_A    0.0000
   5407 O          30.4094   48.6751   26.2159 O.2     510      M_A    0.0000
   5408 H          26.4803   49.3995   22.6706 H       510      M_A    0.0000
   5409 H          28.1382   50.3379   24.1640 H       510      M_A    0.0000
   5410 H          29.1836   47.4079   22.3077 H       510      M_A    0.0000
   5411 H          30.7405   44.6796   24.6456 H       510      M_A    0.0000
   5412 H          32.1871   45.8322   26.1479 H       510      M_A    0.0000
   5413 C          27.3909   45.5126   23.8475 C.3     511      M_A    0.0000
   5414 C          28.5679   43.7911   23.4542 C.3     511      M_A    0.0000
   5415 C          30.2118   43.6844   24.8098 C.2     511      M_A    0.0000
   5416 N          31.3176   42.1412   24.6537 N.3     511      M_A    0.0000
   5417 O          30.6048   44.8695   25.9601 O.2     511      M_A    0.0000
   5418 H          26.7301   45.4496   25.2099 H       511      M_A    0.0000
   5419 H          26.2586   45.6086   22.8409 H       511      M_A    0.0000
   5420 H          29.1541   43.8547   22.0552 H       511      M_A    0.0000
   5421 H          30.7371   40.9590   24.1629 H       511      M_A    0.0000
   5422 H          32.2890   41.9859   25.6512 H       511      M_A    0.0000
   5423 C          27.3802   41.9285   23.5781 C.3     512      M_A    0.0000
   5424 C          28.4537   40.2117   22.9424 C.3     512      M_A    0.0000
   5425 C          28.6268   40.1838   20.8162 C.2     512      M_A    0.0000
   5426 N          29.6496   38.7525   20.0855 N.3     512      M_A    0.0000
   5427 O          27.9027   41.3027   19.7648 O.2     512      M_A    0.0000
   5428 H          26.8427   41.7729   24.9866 H       512      M_A    0.0000
   5429 H          26.1662   42.1396   22.6914 H       512      M_A    0.0000
   5430 H          27.7177   38.9452   23.3411 H       512      M_A    0.0000
   5431 H          30.6682   38.1960   20.8781 H       512      M_A    0.0000
   5432 H          29.9077   38.8297   18.7107 H       512      M_A    0.0000
   5433 C          30.4674   40.1085   23.8535 C.3     513      M_A    0.0000
   5434 C          31.8326   38.9376   22.7272 C.3     513      M_A    0.0000
   5435 C          31.9312   39.6355   20.7136 C.2     513      M_A    0.0000
   5436 N          33.1875   38.7496   19.5886 N.3     513      M_A    0.0000
   5437 O          30.9648   40.8695   20.0615 O.2     513      M_A    0.0000
   5438 H          30.9822   41.5150   24.0854 H       513      M_A    0.0000
   5439 H          30.2785   39.5029   25.2327 H       513      M_A    0.0000
   5440 H          31.3736   37.4916   22.6702 H       513      M_A    0.0000
   5441 H          34.3232   38.1780   20.1878 H       513      M_A    0.0000
   5442 H          33.3759   39.3178   18.3220 H       513      M_A    0.0000
   5443 C          33.8589   38.9426   23.6157 C.3     514      M_A    0.0000
   5444 C          34.5039   37.0166   24.2310 C.3     514      M_A    0.0000
   5445 C          36.6318   36.8825   24.1572 C.2     514      M_A    0.0000
   5446 N          37.3819   35.2429   24.7721 N.3     514      M_A    0.0000
   5447 O          37.6649   38.0947   23.5697 O.2     514      M_A    0.0000
   5448 H          34.8285   39.5819   22.6421 H       514      M_A    0.0000
   5449 H          33.7955   39.8756   24.8115 H       514      M_A    0.0000
   5450 H          33.9626   35.9497   23.2964 H       514      M_A    0.0000
   5451 H          36.6671   34.5088   25.7341 H       514      M_A    0.0000
   5452 H          38.7780   35.2181   24.8863 H       514      M_A    0.0000
   5453 C          33.7977   36.5170   26.2675 C.3     515      M_A    0.0000
   5454 C          33.4468   34.4421   26.5422 C.3     515      M_A    0.0000
   5455 C          35.1801   33.4911   27.3440 C.2     515      M_A    0.0000
   5456 N          35.0003   31.6368   27.7417 N.3     515      M_A    0.0000
   5457 O          36.6745   34.2517   27.6086 O.2     515      M_A    0.0000
   5458 H          34.7785   37.0665   27.2839 H       515      M_A    0.0000
   5459 H          32.5092   37.2932   26.4721 H       515      M_A    0.0000
   5460 H          33.1515   33.7711   25.2128 H       515      M_A    0.0000
   5461 H          33.7219   31.1515   28.0668 H       515      M_A    0.0000
   5462 H          36.0756   31.0547   28.4255 H       515      M_A    0.0000
   5463 C          31.7125   34.0621   27.8625 C.3     516      M_A    0.0000
   5464 C          29.9563   33.5269   26.7981 C.3     516      M_A    0.0000
   5465 C          28.8642   32.0340   27.8612 C.2     516      M_A    0.0000
   5466 N          27.2052   31.5093   27.0858 N.3     516      M_A    0.0000
   5467 O          29.3819   31.2819   29.2923 O.2     516      M_A    0.0000
   5468 H          32.0910   33.0189   28.8947 H       516      M_A    0.0000
   5469 H          31.4792   35.3468   28.6368 H       516      M_A    0.0000
   5470 H          30.3123   32.9336   25.4468 H       516      M_A    0.0000
   5471 H          26.5203   32.4464   26.2933 H       516      M_A    0.0000
   5472 H          26.4101   30.6610   27.8674 H       516      M_A    0.0000
   5473 C          28.6519   35.2734   26.4189 C.3     517      M_A    0.0000
   5474 C          27.1167   35.4969   27.8669 C.3     517      M_A    0.0000
   5475 C          27.6816   34.5702   29.7037 C.2     517      M_A    0.0000
   5476 N          26.4499   34.7632   31.1440 N.3     517      M_A    0.0000
   5477 O          29.1000   33.6691   29.9447 O.2     517      M_A    0.0000
   5478 H          29.5078   36.5186   26.3018 H       517      M_A    0.0000
   5479 H          28.0427   35.0576   25.0453 H       517      M_A    0.0000
   5480 H          25.8428   34.8139   27.4026 H       517      M_A    0.0000
   5481 H          25.6227   35.8994   31.1585 H       517      M_A    0.0000
   5482 H          26.8963   34.3067   32.3910 H       517      M_A    0.0000
   5483 C          26.6209   37.6227   28.2285 C.3     518      M_A    0.0000
   5484 C          24.6135   37.9159   28.8515 C.2     518      M_A    0.0000
   5485 C          24.4769   37.8650   30.9799 C.2     518      M_A    0.0000
   5486 N          22.7510   38.2086   31.7093 N.3     518      M_A    0.0000
   5487 O          25.7629   37.5132   32.0309 O.2     518      M_A    0.0000
   5488 H          27.6126   38.2048   29.2157 H       518      M_A    0.0000
   5489 H          26.8683   38.3451   26.9165 H       518      M_A    0.0000
   5490 H          23.7247   36.8028   28.3264 H       518      M_A    0.0000
   5491 H          21.8702   39.0171   30.9704 H       518      M_A    0.0000
   5492 H          22.6961   38.3461   33.1024 H       518      M_A    0.0000
   5493 C          16.4042   57.5996   42.3755 C.2     519      M_A    0.0000
   5494 C          16.0302   56.5938   41.6747 C.3     519      M_A    0.0000
   5495 C          15.2737   56.9763   40.7043 C.2     519      M_A    0.0000
   5496 N          14.9313   56.1505   39.9801 N.3     519      M_A    0.0000
   5497 O          14.9503   57.9375   40.5539 O.2     519      M_A    0.0000
   5498 H          16.8061   58.2436   41.8641 H       519      M_A    0.0000
   5499 H          17.0331   57.3379   42.9891 H       519      M_A    0.0000
   5500 H          15.5364   56.0127   42.1837 H       519      M_A    0.0000
   5501 H          15.4313   55.4713   39.8840 H       519      M_A    0.0000
   5502 H          14.5234   56.4153   39.2878 H       519      M_A    0.0000
   5503 C          17.0690   55.9069   41.1902 C.3     520      M_A    0.0000
   5504 C          17.4145   54.9240   41.9366 C.3     520      M_A    0.0000
   5505 C          16.4613   54.0607   42.0158 C.2     520      M_A    0.0000
   5506 N          16.6953   53.1094   42.6190 N.3     520      M_A    0.0000
   5507 O          15.5286   54.1746   41.6056 O.2     520      M_A    0.0000
   5508 H          16.8804   55.6388   40.3356 H       520      M_A    0.0000
   5509 H          17.7605   56.5047   41.1187 H       520      M_A    0.0000
   5510 H          17.5840   55.2122   42.7904 H       520      M_A    0.0000
   5511 H          17.5032   52.8522   42.6613 H       520      M_A    0.0000
   5512 H          16.1102   52.4992   42.5840 H       520      M_A    0.0000
   5513 C          18.5256   54.3267   41.4956 C.3     521      M_A    0.0000
   5514 C          18.3233   53.1311   41.0803 C.3     521      M_A    0.0000
   5515 C          17.3403   53.1030   40.2478 C.2     521      M_A    0.0000
   5516 N          17.1157   52.0800   39.7717 N.3     521      M_A    0.0000
   5517 O          16.7501   53.9059   40.0066 O.2     521      M_A    0.0000
   5518 H          18.9151   54.8511   40.8546 H       521      M_A    0.0000
   5519 H          19.1098   54.3186   42.2021 H       521      M_A    0.0000
   5520 H          18.0963   52.5820   41.7786 H       521      M_A    0.0000
   5521 H          17.7562   51.5293   39.6884 H       521      M_A    0.0000
   5522 H          16.5415   52.0823   39.1503 H       521      M_A    0.0000
   5523 C          19.4118   52.6091   40.5074 C.3     522      M_A    0.0000
   5524 C          19.1528   51.9590   39.4336 C.3     522      M_A    0.0000
   5525 C          20.2011   51.8824   38.6885 C.2     522      M_A    0.0000
   5526 N          20.0867   51.2659   37.7240 N.3     522      M_A    0.0000
   5527 O          21.0973   52.3402   38.8847 O.2     522      M_A    0.0000
   5528 H          20.0257   53.2732   40.3666 H       522      M_A    0.0000
   5529 H          19.7859   52.0498   41.1301 H       522      M_A    0.0000
   5530 H          18.5091   52.3905   38.9436 H       522      M_A    0.0000
   5531 H          19.5165   50.6371   37.7174 H       522      M_A    0.0000
   5532 H          20.7994   51.1287   37.2891 H       522      M_A    0.0000
   5533 C          18.6938   50.7305   39.6903 C.3     523      M_A    0.0000
   5534 C          18.2281   50.1402   38.6524 C.3     523      M_A    0.0000
   5535 C          19.1857   49.7915   37.8640 C.2     523      M_A    0.0000
   5536 N          18.8739   49.2005   36.9274 N.3     523      M_A    0.0000
   5537 O          20.1756   50.0191   38.0037 O.2     523      M_A    0.0000
   5538 H          19.3526   50.2417   40.0962 H       523      M_A    0.0000
   5539 H          18.0326   50.8299   40.3177 H       523      M_A    0.0000
   5540 H          17.6849   50.7056   38.1771 H       523      M_A    0.0000
   5541 H          18.1678   48.7313   36.9682 H       523      M_A    0.0000
   5542 H          19.5078   48.8825   36.4660 H       523      M_A    0.0000
   5543 C          17.4967   49.0684   38.9717 C.3     524      M_A    0.0000
   5544 C          16.7552   48.6602   38.0092 C.3     524      M_A    0.0000
   5545 C          17.1359   49.1814   36.8941 C.2     524      M_A    0.0000
   5546 N          16.5675   48.8312   35.9571 N.3     524      M_A    0.0000
   5547 O          17.8766   49.8833   36.7950 O.2     524      M_A    0.0000
   5548 H          18.0495   48.4084   39.2825 H       524      M_A    0.0000
   5549 H          16.9766   49.3164   39.6848 H       524      M_A    0.0000
   5550 H          15.8856   48.9192   38.1408 H       524      M_A    0.0000
   5551 H          16.2239   48.0550   35.9656 H       524      M_A    0.0000
   5552 H          16.8837   49.0919   35.2170 H       524      M_A    0.0000
   5553 C          16.7572   47.3279   37.9059 C.3     525      M_A    0.0000
   5554 C          15.5939   46.8101   38.0522 C.3     525      M_A    0.0000
   5555 C          15.0089   46.6853   36.9110 C.2     525      M_A    0.0000
   5556 N          13.9780   46.1748   36.9293 N.3     525      M_A    0.0000
   5557 O          15.3834   47.0214   36.0177 O.2     525      M_A    0.0000
   5558 H          17.1417   47.0883   37.1106 H       525      M_A    0.0000
   5559 H          17.3216   47.0210   38.5599 H       525      M_A    0.0000
   5560 H          15.0624   47.3527   38.5657 H       525      M_A    0.0000
   5561 H          13.8201   45.6162   37.5486 H       525      M_A    0.0000
   5562 H          13.6417   45.9992   36.1730 H       525      M_A    0.0000
   5563 C          15.6476   45.6220   38.6614 C.3     526      M_A    0.0000
   5564 C          14.5947   44.9145   38.4784 C.3     526      M_A    0.0000
   5565 C          14.3199   44.2325   39.5365 C.2     526      M_A    0.0000
   5566 N          13.3556   43.6065   39.4931 N.3     526      M_A    0.0000
   5567 O          14.9001   44.1971   40.3811 O.2     526      M_A    0.0000
   5568 H          16.4061   45.1826   38.3978 H       526      M_A    0.0000
   5569 H          15.7567   45.7968   39.5547 H       526      M_A    0.0000
   5570 H          14.7258   44.3117   37.8001 H       526      M_A    0.0000
   5571 H          12.7282   43.8745   38.9879 H       526      M_A    0.0000
   5572 H          13.1207   43.2430   40.2201 H       526      M_A    0.0000
   5573 C          13.5407   45.6633   38.1406 C.3     527      M_A    0.0000
   5574 C          12.4192   45.1065   38.4147 C.3     527      M_A    0.0000
   5575 C          11.5150   45.9976   38.6348 C.2     527      M_A    0.0000
   5576 N          10.4548   45.5975   38.8336 N.3     527      M_A    0.0000
   5577 O          11.6803   47.0090   38.6642 O.2     527      M_A    0.0000
   5578 H          13.6191   46.4872   38.5315 H       527      M_A    0.0000
   5579 H          13.6072   45.8068   37.2376 H       527      M_A    0.0000
   5580 H          12.4879   44.6031   39.1779 H       527      M_A    0.0000
   5581 H          10.2388   44.8517   38.4906 H       527      M_A    0.0000
   5582 H           9.8437   46.1812   38.8742 H       527      M_A    0.0000
   5583 C          12.0148   44.2880   37.4389 C.3     528      M_A    0.0000
   5584 C          11.9020   43.0691   37.8189 C.2     528      M_A    0.0000
   5585 C          10.7060   42.8359   38.2377 C.2     528      M_A    0.0000
   5586 N          10.4864   41.7501   38.5481 N.3     528      M_A    0.0000
   5587 O           9.9666   43.5403   38.3291 O.2     528      M_A    0.0000
   5588 H          11.2362   44.6088   37.0803 H       528      M_A    0.0000
   5589 H          12.6425   44.3524   36.7738 H       528      M_A    0.0000
   5590 H          12.4676   42.8969   38.5197 H       528      M_A    0.0000
   5591 H          10.9326   41.1307   38.1769 H       528      M_A    0.0000
   5592 H           9.6773   41.5746   38.7229 H       528      M_A    0.0000
   5593 C          35.6202   54.3980   32.6547 C.2     529      M_A    0.0000
   5594 C          33.9933   54.7743   32.2489 C.3     529      M_A    0.0000
   5595 C          32.9048   53.7081   33.0629 C.2     529      M_A    0.0000
   5596 N          31.4032   53.9869   32.8465 N.3     529      M_A    0.0000
   5597 O          33.2813   52.6418   33.8445 O.2     529      M_A    0.0000
   5598 H          35.9282   54.8251   33.7632 H       529      M_A    0.0000
   5599 H          36.3874   54.9387   31.8610 H       529      M_A    0.0000
   5600 H          33.8038   54.6253   31.0435 H       529      M_A    0.0000
   5601 H          31.0849   55.0552   32.6171 H       529      M_A    0.0000
   5602 H          30.6921   53.3790   33.4881 H       529      M_A    0.0000
   5603 C          33.5789   56.4725   32.6417 C.3     530      M_A    0.0000
   5604 C          34.9596   57.4574   32.9179 C.3     530      M_A    0.0000
   5605 C          35.7330   57.8477   31.4233 C.2     530      M_A    0.0000
   5606 N          36.9464   58.7950   31.5217 N.3     530      M_A    0.0000
   5607 O          35.3637   57.3592   30.1926 O.2     530      M_A    0.0000
   5608 H          32.8591   56.9271   31.7577 H       530      M_A    0.0000
   5609 H          32.8827   56.4309   33.6539 H       530      M_A    0.0000
   5610 H          35.7870   56.8584   33.6018 H       530      M_A    0.0000
   5611 H          36.9802   59.5332   32.3872 H       530      M_A    0.0000
   5612 H          37.3662   59.1616   30.5336 H       530      M_A    0.0000
   5613 C          34.5449   58.9650   33.7927 C.3     531      M_A    0.0000
   5614 C          35.7124   59.4017   34.9755 C.3     531      M_A    0.0000
   5615 C          37.2199   59.7861   34.2244 C.2     531      M_A    0.0000
   5616 N          38.3376   60.2715   35.1702 N.3     531      M_A    0.0000
   5617 O          37.4865   59.6629   32.8815 O.2     531      M_A    0.0000
   5618 H          34.3555   59.8644   32.9795 H       531      M_A    0.0000
   5619 H          33.4578   58.7627   34.3295 H       531      M_A    0.0000
   5620 H          35.9241   58.4627   35.7401 H       531      M_A    0.0000
   5621 H          38.0334   60.7973   36.1326 H       531      M_A    0.0000
   5622 H          39.2777   60.6556   34.6649 H       531      M_A    0.0000
   5623 C          35.1690   60.7844   35.9768 C.3     532      M_A    0.0000
   5624 C          34.7669   60.3354   37.5860 C.3     532      M_A    0.0000
   5625 C          35.2666   61.5591   38.6983 C.2     532      M_A    0.0000
   5626 N          34.8952   61.3167   40.1757 N.3     532      M_A    0.0000
   5627 O          35.9777   62.6868   38.3636 O.2     532      M_A    0.0000
   5628 H          36.0224   61.6658   35.9450 H       532      M_A    0.0000
   5629 H          34.1823   61.2512   35.4115 H       532      M_A    0.0000
   5630 H          35.3528   59.3028   37.9050 H       532      M_A    0.0000
   5631 H          33.9720   60.6899   40.3996 H       532      M_A    0.0000
   5632 H          35.0978   62.1806   40.8824 H       532      M_A    0.0000
   5633 C          33.0126   60.0269   37.7786 C.3     533      M_A    0.0000
   5634 C          32.2607   61.0863   38.9035 C.3     533      M_A    0.0000
   5635 C          33.0434   62.6263   38.9003 C.2     533      M_A    0.0000
   5636 N          32.4167   63.7007   39.8126 N.3     533      M_A    0.0000
   5637 O          34.1721   62.9363   38.1796 O.2     533      M_A    0.0000
   5638 H          32.4725   60.0670   36.6774 H       533      M_A    0.0000
   5639 H          32.9084   58.8637   38.1621 H       533      M_A    0.0000
   5640 H          32.3550   60.6407   40.0453 H       533      M_A    0.0000
   5641 H          31.3024   63.6316   40.0333 H       533      M_A    0.0000
   5642 H          32.8425   64.7467   39.7057 H       533      M_A    0.0000
   5643 C          30.5146   61.2979   38.5628 C.3     534      M_A    0.0000
   5644 C          29.5889   61.6381   39.9701 C.3     534      M_A    0.0000
   5645 C          30.5890   62.3231   41.2009 C.2     534      M_A    0.0000
   5646 N          29.8656   62.7490   42.4950 N.3     534      M_A    0.0000
   5647 O          31.9516   62.4812   41.1132 O.2     534      M_A    0.0000
   5648 H          30.3731   62.1591   37.7001 H       534      M_A    0.0000
   5649 H          30.1340   60.2460   38.0534 H       534      M_A    0.0000
   5650 H          29.1115   60.6042   40.4329 H       534      M_A    0.0000
   5651 H          28.7704   63.0499   42.4217 H       534      M_A    0.0000
   5652 H          30.4942   63.3240   43.2440 H       534      M_A    0.0000
   5653 C          28.2205   62.7413   39.6232 C.3     535      M_A    0.0000
   5654 C          26.6941   61.9524   39.6508 C.3     535      M_A    0.0000
   5655 C          26.6438   60.7764   40.9152 C.2     535      M_A    0.0000
   5656 N          25.2976   60.0466   41.1012 N.3     535      M_A    0.0000
   5657 O          27.7042   60.4400   41.7227 O.2     535      M_A    0.0000
   5658 H          28.2612   63.6912   40.3991 H       535      M_A    0.0000
   5659 H          28.4315   63.2099   38.5066 H       535      M_A    0.0000
   5660 H          26.5002   61.3509   38.5964 H       535      M_A    0.0000
   5661 H          24.3465   60.5922   40.7963 H       535      M_A    0.0000
   5662 H          25.2214   59.3795   42.0155 H       535      M_A    0.0000
   5663 C          25.3428   63.1113   39.8526 C.3     536      M_A    0.0000
   5664 C          23.9022   62.6129   39.0593 C.3     536      M_A    0.0000
   5665 C          24.2679   61.9230   37.5183 C.2     536      M_A    0.0000
   5666 N          23.0661   61.3615   36.7311 N.3     536      M_A    0.0000
   5667 O          25.5204   61.8706   36.9544 O.2     536      M_A    0.0000
   5668 H          25.1618   63.3159   41.0490 H       536      M_A    0.0000
   5669 H          25.7329   64.1788   39.3842 H       536      M_A    0.0000
   5670 H          23.1675   63.5767   38.8533 H       536      M_A    0.0000
   5671 H          22.1677   60.9871   37.3210 H       536      M_A    0.0000
   5672 H          23.3213   60.7858   35.7876 H       536      M_A    0.0000
   5673 C          22.9686   61.4383   40.0384 C.3     537      M_A    0.0000
   5674 C          23.3190   59.8026   39.6449 C.3     537      M_A    0.0000
   5675 C          24.1217   59.7063   38.1183 C.2     537      M_A    0.0000
   5676 N          24.5643   58.2953   37.6795 N.3     537      M_A    0.0000
   5677 O          24.3579   60.7717   37.2824 O.2     537      M_A    0.0000
   5678 H          23.1477   61.6732   41.2295 H       537      M_A    0.0000
   5679 H          21.7823   61.6777   39.8231 H       537      M_A    0.0000
   5680 H          22.2813   59.1513   39.5440 H       537      M_A    0.0000
   5681 H          24.7943   57.5303   38.4901 H       537      M_A    0.0000
   5682 H          25.2117   58.2496   36.7490 H       537      M_A    0.0000
   5683 C          24.3191   59.0091   40.9019 C.3     538      M_A    0.0000
   5684 C          24.2773   57.2934   40.8138 C.2     538      M_A    0.0000
   5685 C          25.5544   56.7080   39.8085 C.2     538      M_A    0.0000
   5686 N          25.6794   55.1740   39.7055 N.3     538      M_A    0.0000
   5687 O          26.4217   57.4994   39.0936 O.2     538      M_A    0.0000
   5688 H          25.4647   59.4448   40.8407 H       538      M_A    0.0000
   5689 H          23.8735   59.3856   41.9838 H       538      M_A    0.0000
   5690 H          23.2230   56.9129   40.3089 H       538      M_A    0.0000
   5691 H          25.3165   54.5474   40.5835 H       538      M_A    0.0000
   5692 H          26.5980   54.7904   39.1618 H       538      M_A    0.0000
   5693 C          25.0869   22.6763   33.0886 C.2     539      M_A    0.0000
   5694 C          25.7702   23.8103   32.3109 C.3     539      M_A    0.0000
   5695 C          25.2403   23.8679   30.8623 C.2     539      M_A    0.0000
   5696 N          25.7311   24.8938   30.0837 N.3     539      M_A    0.0000
   5697 O          24.4524   23.0662   30.3674 O.2     539      M_A    0.0000
   5698 H          25.2496   22.7633   34.1695 H       539      M_A    0.0000
   5699 H          25.5167   21.7086   32.7970 H       539      M_A    0.0000
   5700 H          26.8528   23.6364   32.2475 H       539      M_A    0.0000
   5701 H          26.0266   25.7481   30.5493 H       539      M_A    0.0000
   5702 H          25.2920   25.0067   29.1772 H       539      M_A    0.0000
   5703 C          25.5621   25.2320   33.0166 C.3     540      M_A    0.0000
   5704 C          26.6825   25.5838   34.0057 C.3     540      M_A    0.0000
   5705 C          26.7191   27.1055   34.2619 C.2     540      M_A    0.0000
   5706 N          27.6426   27.5362   35.1900 N.3     540      M_A    0.0000
   5707 O          26.0159   27.9339   33.6895 O.2     540      M_A    0.0000
   5708 H          25.4373   26.0021   32.2462 H       540      M_A    0.0000
   5709 H          24.6000   25.1753   33.5434 H       540      M_A    0.0000
   5710 H          27.6620   25.3065   33.5932 H       540      M_A    0.0000
   5711 H          27.9156   26.8916   35.9275 H       540      M_A    0.0000
   5712 H          27.5820   28.5140   35.4496 H       540      M_A    0.0000
   5713 C          26.5206   24.8080   35.3965 C.3     541      M_A    0.0000
   5714 C          27.8639   24.4800   36.0639 C.3     541      M_A    0.0000
   5715 C          28.4200   25.7193   36.7969 C.2     541      M_A    0.0000
   5716 N          29.5927   25.5280   37.4953 N.3     541      M_A    0.0000
   5717 O          27.9122   26.8375   36.7764 O.2     541      M_A    0.0000
   5718 H          25.8637   25.3859   36.0574 H       541      M_A    0.0000
   5719 H          25.9777   23.8807   35.1693 H       541      M_A    0.0000
   5720 H          28.6096   24.1946   35.3096 H       541      M_A    0.0000
   5721 H          29.7893   24.5969   37.8538 H       541      M_A    0.0000
   5722 H          29.8903   26.3035   38.0761 H       541      M_A    0.0000
   5723 C          27.7412   23.2580   37.0906 C.3     542      M_A    0.0000
   5724 C          29.0939   22.6129   37.4245 C.3     542      M_A    0.0000
   5725 C          29.3059   21.3360   36.5836 C.2     542      M_A    0.0000
   5726 N          30.5203   20.7048   36.7459 N.3     542      M_A    0.0000
   5727 O          28.4758   20.8479   35.8213 O.2     542      M_A    0.0000
   5728 H          27.2134   23.5949   37.9908 H       542      M_A    0.0000
   5729 H          27.0811   22.5212   36.6134 H       542      M_A    0.0000
   5730 H          29.1260   22.3087   38.4794 H       542      M_A    0.0000
   5731 H          31.3203   21.2701   37.0191 H       542      M_A    0.0000
   5732 H          30.7087   19.9422   36.1055 H       542      M_A    0.0000
   5733 C          30.3143   23.6215   37.1879 C.3     543      M_A    0.0000
   5734 C          31.5758   22.9270   36.6554 C.3     543      M_A    0.0000
   5735 C          31.4443   22.2776   35.6356 C.2     543      M_A    0.0000
   5736 N          32.3344   21.7655   35.2826 N.3     543      M_A    0.0000
   5737 O          30.6164   22.1753   35.1451 O.2     543      M_A    0.0000
   5738 H          29.9863   24.4368   36.5321 H       543      M_A    0.0000
   5739 H          30.5229   24.0846   38.1616 H       543      M_A    0.0000
   5740 H          31.7844   22.3691   37.2832 H       543      M_A    0.0000
   5741 H          33.0479   22.0805   35.4659 H       543      M_A    0.0000
   5742 H          32.2745   21.4217   34.5643 H       543      M_A    0.0000
   5743 C          32.5462   23.7227   36.5288 C.3     544      M_A    0.0000
   5744 C          32.9550   23.7963   35.3926 C.3     544      M_A    0.0000
   5745 C          32.0322   23.7327   34.6031 C.2     544      M_A    0.0000
   5746 N          32.2968   23.8454   33.5560 N.3     544      M_A    0.0000
   5747 O          31.1079   23.5726   34.8407 O.2     544      M_A    0.0000
   5748 H          32.3226   24.4957   36.8431 H       544      M_A    0.0000
   5749 H          33.1709   23.4271   37.0495 H       544      M_A    0.0000
   5750 H          33.4826   23.1335   35.2161 H       544      M_A    0.0000
   5751 H          32.9468   24.2778   33.3760 H       544      M_A    0.0000
   5752 H          31.6834   23.9023   33.0477 H       544      M_A    0.0000
   5753 C          33.6104   24.8554   35.1938 C.3     545      M_A    0.0000
   5754 C          33.0875   25.5940   34.3910 C.3     545      M_A    0.0000
   5755 C          31.9437   25.2438   34.1721 C.2     545      M_A    0.0000
   5756 N          31.3737   25.8809   33.5025 N.3     545      M_A    0.0000
   5757 O          31.5287   24.4464   34.5304 O.2     545      M_A    0.0000
   5758 H          33.7524   25.2479   35.9502 H       545      M_A    0.0000
   5759 H          34.3881   24.6081   34.9058 H       545      M_A    0.0000
   5760 H          33.5075   25.5669   33.6348 H       545      M_A    0.0000
   5761 H          31.5673   26.6574   33.4656 H       545      M_A    0.0000
   5762 H          30.5970   25.7074   33.4366 H       545      M_A    0.0000
   5763 C          33.0965   26.7946   34.7775 C.3     546      M_A    0.0000
   5764 C          33.3932   27.5736   33.9008 C.3     546      M_A    0.0000
   5765 C          32.8366   27.2767   32.8611 C.2     546      M_A    0.0000
   5766 N          32.9996   27.9530   32.0273 N.3     546      M_A    0.0000
   5767 O          32.2906   26.4888   32.7285 O.2     546      M_A    0.0000
   5768 H          32.3327   26.9840   35.1340 H       546      M_A    0.0000
   5769 H          33.6747   26.8375   35.4198 H       546      M_A    0.0000
   5770 H          34.2442   27.5473   33.7464 H       546      M_A    0.0000
   5771 H          33.1564   28.7215   32.1907 H       546      M_A    0.0000
   5772 H          32.5581   27.8137   31.3766 H       546      M_A    0.0000
   5773 C          33.1085   28.7630   34.2091 C.3     547      M_A    0.0000
   5774 C          32.5633   29.3681   33.3147 C.3     547      M_A    0.0000
   5775 C          33.2232   29.3068   32.2950 C.2     547      M_A    0.0000
   5776 N          32.7856   29.7765   31.4192 N.3     547      M_A    0.0000
   5777 O          34.0963   28.8958   32.2223 O.2     547      M_A    0.0000
   5778 H          32.6385   28.7639   34.9340 H       547      M_A    0.0000
   5779 H          33.8574   29.1460   34.4122 H       547      M_A    0.0000
   5780 H          32.4897   30.2065   33.5160 H       547      M_A    0.0000
   5781 H          31.9869   29.8219   31.3756 H       547      M_A    0.0000
   5782 H          33.1701   29.6517   30.7305 H       547      M_A    0.0000
   5783 C          31.3993   28.9362   33.0927 C.3     548      M_A    0.0000
   5784 C          30.6133   29.8118   32.8119 C.3     548      M_A    0.0000
   5785 C          30.3711   29.8006   31.6202 C.2     548      M_A    0.0000
   5786 N          29.6307   30.5189   31.2811 N.3     548      M_A    0.0000
   5787 O          30.7986   29.2232   30.9719 O.2     548      M_A    0.0000
   5788 H          31.4345   28.3251   32.4831 H       548      M_A    0.0000
   5789 H          31.1484   28.5341   33.8167 H       548      M_A    0.0000
   5790 H          30.9473   30.5893   32.9929 H       548      M_A    0.0000
   5791 H          29.0675   30.7532   31.8005 H       548      M_A    0.0000
   5792 H          29.4001   30.4458   30.5200 H       548      M_A    0.0000
   5793 C          29.5384   29.7090   33.4637 C.3     549      M_A    0.0000
   5794 C          28.7975   28.8583   33.0268 C.3     549      M_A    0.0000
   5795 C          29.1079   27.7629   33.4543 C.2     549      M_A    0.0000
   5796 N          28.4638   26.9399   33.1593 N.3     549      M_A    0.0000
   5797 O          29.8809   27.5811   34.0074 O.2     549      M_A    0.0000
   5798 H          29.7231   29.5801   34.2978 H       549      M_A    0.0000
   5799 H          29.1558   30.4841   33.4230 H       549      M_A    0.0000
   5800 H          28.8571   28.8174   32.1645 H       549      M_A    0.0000
   5801 H          27.6963   27.1019   32.9965 H       549      M_A    0.0000
   5802 H          28.6086   26.2410   33.5174 H       549      M_A    0.0000
   5803 C          27.5902   29.0949   33.3046 C.3     550      M_A    0.0000
   5804 C          26.8137   28.4719   32.6173 C.3     550      M_A    0.0000
   5805 C          27.2429   27.3560   32.3945 C.2     550      M_A    0.0000
   5806 N          26.5873   26.7013   31.8283 N.3     550      M_A    0.0000
   5807 O          28.1137   27.0316   32.6646 O.2     550      M_A    0.0000
   5808 H          27.4600   28.9561   34.1473 H       550      M_A    0.0000
   5809 H          27.4764   29.9443   33.1842 H       550      M_A    0.0000
   5810 H          26.7093   28.8585   31.8502 H       550      M_A    0.0000
   5811 H          25.7970   26.8216   31.8816 H       550      M_A    0.0000
   5812 H          26.8251   25.9414   31.7670 H       550      M_A    0.0000
   5813 C          25.6731   28.3888   33.1492 C.3     551      M_A    0.0000
   5814 C          24.8554   29.1175   32.6357 C.3     551      M_A    0.0000
   5815 C          23.8009   29.0665   33.2394 C.2     551      M_A    0.0000
   5816 N          23.0193   29.7309   32.8834 N.3     551      M_A    0.0000
   5817 O          23.6138   28.4744   33.9816 O.2     551      M_A    0.0000
   5818 H          25.4180   27.5635   33.1468 H       551      M_A    0.0000
   5819 H          25.7783   28.6017   33.9813 H       551      M_A    0.0000
   5820 H          24.6922   28.8665   31.8237 H       551      M_A    0.0000
   5821 H          23.2389   30.4107   32.5207 H       551      M_A    0.0000
   5822 H          22.3636   29.7694   33.3378 H       551      M_A    0.0000
   5823 C          25.2551   30.3125   32.5814 C.3     552      M_A    0.0000
   5824 C          25.0716   30.9220   33.6101 C.3     552      M_A    0.0000
   5825 C          24.7812   30.1588   34.5113 C.2     552      M_A    0.0000
   5826 N          24.6508   30.6103   35.4902 N.3     552      M_A    0.0000
   5827 O          24.6435   29.2063   34.4098 O.2     552      M_A    0.0000
   5828 H          26.0851   30.3239   32.3420 H       552      M_A    0.0000
   5829 H          24.8171   30.6849   31.9346 H       552      M_A    0.0000
   5830 H          24.4089   31.4718   33.5234 H       552      M_A    0.0000
   5831 H          25.0549   31.2830   35.6516 H       552      M_A    0.0000
   5832 H          24.5580   30.1001   36.0975 H       552      M_A    0.0000
   5833 C          26.0791   31.6047   33.9412 C.3     553      M_A    0.0000
   5834 C          26.0634   31.9422   35.1028 C.3     553      M_A    0.0000
   5835 C          26.2281   30.9800   35.8280 C.2     553      M_A    0.0000
   5836 N          26.2838   31.1931   36.8914 N.3     553      M_A    0.0000
   5837 O          26.2904   30.0622   35.5277 O.2     553      M_A    0.0000
   5838 H          26.7968   31.1676   33.7408 H       553      M_A    0.0000
   5839 H          26.0767   32.3029   33.4300 H       553      M_A    0.0000
   5840 H          25.2956   32.2839   35.3094 H       553      M_A    0.0000
   5841 H          26.5507   31.9138   37.1177 H       553      M_A    0.0000
   5842 H          26.4894   30.5783   37.3577 H       553      M_A    0.0000
   5843 C          26.9378   32.8160   35.3530 C.3     554      M_A    0.0000
   5844 C          26.5896   33.6080   36.1986 C.3     554      M_A    0.0000
   5845 C          26.9983   33.2698   37.2929 C.2     554      M_A    0.0000
   5846 N          26.7811   33.9508   38.1103 N.3     554      M_A    0.0000
   5847 O          27.4730   32.4473   37.4787 O.2     554      M_A    0.0000
   5848 H          27.6791   32.4245   35.5618 H       554      M_A    0.0000
   5849 H          27.0893   33.2272   34.6068 H       554      M_A    0.0000
   5850 H          25.7262   33.6365   36.2509 H       554      M_A    0.0000
   5851 H          26.6944   34.7288   37.9396 H       554      M_A    0.0000
   5852 H          27.1322   33.7794   38.8068 H       554      M_A    0.0000
   5853 C          26.9845   34.7779   35.9417 C.3     555      M_A    0.0000
   5854 C          26.6269   35.5910   36.7629 C.3     555      M_A    0.0000
   5855 C          26.7025   35.1256   37.8839 C.2     555      M_A    0.0000
   5856 N          26.4531   35.8029   38.6952 N.3     555      M_A    0.0000
   5857 O          26.9441   34.2117   38.0908 O.2     555      M_A    0.0000
   5858 H          27.8428   34.7730   35.8436 H       555      M_A    0.0000
   5859 H          26.6587   34.9782   35.1655 H       555      M_A    0.0000
   5860 H          25.7984   35.8067   36.6360 H       555      M_A    0.0000
   5861 H          26.5687   36.5873   38.5802 H       555      M_A    0.0000
   5862 H          26.5970   35.5294   39.4316 H       555      M_A    0.0000
   5863 C          27.3012   36.6550   36.6995 C.3     556      M_A    0.0000
   5864 C          26.6531   37.6067   36.3284 C.2     556      M_A    0.0000
   5865 C          26.1717   38.1912   37.2800 C.2     556      M_A    0.0000
   5866 N          25.6157   39.0947   37.0484 N.3     556      M_A    0.0000
   5867 O          26.2341   37.8996   38.2006 O.2     556      M_A    0.0000
   5868 H          27.6784   36.7983   37.4633 H       556      M_A    0.0000
   5869 H          27.9453   36.5002   36.1427 H       556      M_A    0.0000
   5870 H          25.9929   37.3495   35.8316 H       556      M_A    0.0000
   5871 H          25.8185   39.5036   36.3899 H       556      M_A    0.0000
   5872 H          25.3847   39.5301   37.6768 H       556      M_A    0.0000
   5873 C          34.4933   14.9738   36.0096 C.2     557      M_A    0.0000
   5874 C          33.8448   13.9760   35.0394 C.3     557      M_A    0.0000
   5875 C          32.4022   14.4095   34.7026 C.2     557      M_A    0.0000
   5876 N          31.7390   13.6262   33.7827 N.3     557      M_A    0.0000
   5877 O          31.8172   15.3646   35.2065 O.2     557      M_A    0.0000
   5878 H          34.9916   15.7955   35.4816 H       557      M_A    0.0000
   5879 H          35.2769   14.4738   36.5947 H       557      M_A    0.0000
   5880 H          33.7794   12.9799   35.4976 H       557      M_A    0.0000
   5881 H          32.2932   13.1288   33.0902 H       557      M_A    0.0000
   5882 H          30.8426   13.9798   33.4688 H       557      M_A    0.0000
   5883 C          34.6884   13.8183   33.6881 C.3     558      M_A    0.0000
   5884 C          35.8321   12.8008   33.8066 C.3     558      M_A    0.0000
   5885 C          35.3192   11.3747   33.5137 C.2     558      M_A    0.0000
   5886 N          36.2731   10.3800   33.5217 N.3     558      M_A    0.0000
   5887 O          34.1461   11.0762   33.3057 O.2     558      M_A    0.0000
   5888 H          34.0070   13.5765   32.8638 H       558      M_A    0.0000
   5889 H          35.0931   14.8137   33.4611 H       558      M_A    0.0000
   5890 H          36.2350   12.7909   34.8284 H       558      M_A    0.0000
   5891 H          37.2295   10.6327   33.2859 H       558      M_A    0.0000
   5892 H          35.9606    9.4683   33.2080 H       558      M_A    0.0000
   5893 C          37.0477   13.1474   32.8244 C.3     559      M_A    0.0000
   5894 C          38.0201   11.9749   32.6315 C.3     559      M_A    0.0000
   5895 C          37.3543   10.8502   31.8103 C.2     559      M_A    0.0000
   5896 N          38.1560    9.7696   31.5118 N.3     559      M_A    0.0000
   5897 O          36.1835   10.8464   31.4395 O.2     559      M_A    0.0000
   5898 H          36.6479   13.5109   31.8703 H       559      M_A    0.0000
   5899 H          37.5725   14.0006   33.2748 H       559      M_A    0.0000
   5900 H          38.2970   11.5402   33.6014 H       559      M_A    0.0000
   5901 H          39.1586    9.9232   31.4406 H       559      M_A    0.0000
   5902 H          37.7601    9.0922   30.8701 H       559      M_A    0.0000
   5903 C          39.3769   12.4324   31.9158 C.3     560      M_A    0.0000
   5904 C          39.9675   11.3532   30.9971 C.3     560      M_A    0.0000
   5905 C          38.8582   10.4046   30.4950 C.2     560      M_A    0.0000
   5906 N          39.2575    9.4323   29.6036 N.3     560      M_A    0.0000
   5907 O          37.6827   10.4447   30.8489 O.2     560      M_A    0.0000
   5908 H          39.2037   13.3752   31.3835 H       560      M_A    0.0000
   5909 H          40.0847   12.6681   32.7218 H       560      M_A    0.0000
   5910 H          40.6917   10.7350   31.5447 H       560      M_A    0.0000
   5911 H          40.0637    9.6254   29.0147 H       560      M_A    0.0000
   5912 H          38.5125    8.8916   29.1795 H       560      M_A    0.0000
   5913 C          40.7400   11.9870   29.7465 C.3     561      M_A    0.0000
   5914 C          42.1702   12.4321   30.0838 C.3     561      M_A    0.0000
   5915 C          42.9331   11.2997   30.8035 C.2     561      M_A    0.0000
   5916 N          44.2550   11.5578   31.0962 N.3     561      M_A    0.0000
   5917 O          42.4441   10.2258   31.1442 O.2     561      M_A    0.0000
   5918 H          40.7169   11.2772   28.9110 H       561      M_A    0.0000
   5919 H          40.1439   12.8510   29.4233 H       561      M_A    0.0000
   5920 H          42.1553   13.2912   30.7679 H       561      M_A    0.0000
   5921 H          44.7590   12.2078   30.4984 H       561      M_A    0.0000
   5922 H          44.7876   10.7731   31.4537 H       561      M_A    0.0000
   5923 C          42.9816   12.8828   28.7795 C.3     562      M_A    0.0000
   5924 C          43.8463   14.4669   28.8917 C.3     562      M_A    0.0000
   5925 C          45.5532   14.3044   28.2882 C.2     562      M_A    0.0000
   5926 N          46.4249   15.6733   28.2547 N.3     562      M_A    0.0000
   5927 O          46.1740   13.0644   27.8768 O.2     562      M_A    0.0000
   5928 H          43.8010   11.8910   28.6682 H       562      M_A    0.0000
   5929 H          42.2457   12.8547   27.7161 H       562      M_A    0.0000
   5930 H          43.9191   14.8582   30.1225 H       562      M_A    0.0000
   5931 H          45.8406   16.7098   28.1196 H       562      M_A    0.0000
   5932 H          47.4910   15.5957   27.7233 H       562      M_A    0.0000
   5933 C          42.9609   15.8250   27.9295 C.3     563      M_A    0.0000
   5934 C          43.6967   17.4594   28.1680 C.3     563      M_A    0.0000
   5935 C          45.4953   17.3212   28.3920 C.2     563      M_A    0.0000
   5936 N          46.2999   18.7235   28.5358 N.3     563      M_A    0.0000
   5937 O          46.2282   16.0771   28.4777 O.2     563      M_A    0.0000
   5938 H          42.9075   15.4958   26.6819 H       563      M_A    0.0000
   5939 H          41.7370   15.8253   28.3479 H       563      M_A    0.0000
   5940 H          43.2272   18.0171   29.2366 H       563      M_A    0.0000
   5941 H          45.8372   19.6948   28.0098 H       563      M_A    0.0000
   5942 H          47.4907   18.6400   28.5347 H       563      M_A    0.0000
   5943 C          43.3249   18.6186   26.7284 C.3     564      M_A    0.0000
   5944 C          43.7170   20.3466   27.0887 C.3     564      M_A    0.0000
   5945 C          44.4071   21.1627   25.6183 C.2     564      M_A    0.0000
   5946 N          44.7303   22.7457   25.7742 N.3     564      M_A    0.0000
   5947 O          44.7055   20.5033   24.3659 O.2     564      M_A    0.0000
   5948 H          43.9354   18.1939   25.6727 H       564      M_A    0.0000
   5949 H          42.0615   18.4938   26.4808 H       564      M_A    0.0000
   5950 H          44.6143   20.4245   28.0171 H       564      M_A    0.0000
   5951 H          44.0831   23.3779   26.5587 H       564      M_A    0.0000
   5952 H          45.0429   23.3118   24.7708 H       564      M_A    0.0000
   5953 C          42.2086   21.3020   27.6939 C.3     565      M_A    0.0000
   5954 C          42.6044   22.9771   28.2480 C.3     565      M_A    0.0000
   5955 C          44.0557   23.6154   27.3587 C.2     565      M_A    0.0000
   5956 N          44.4765   25.1458   27.6982 N.3     565      M_A    0.0000
   5957 O          44.8528   22.8582   26.4188 O.2     565      M_A    0.0000
   5958 H          41.3053   21.2984   26.7711 H       565      M_A    0.0000
   5959 H          41.7159   20.6166   28.6740 H       565      M_A    0.0000
   5960 H          42.9040   22.9801   29.5063 H       565      M_A    0.0000
   5961 H          43.6178   25.8995   28.0573 H       565      M_A    0.0000
   5962 H          45.3337   25.6121   27.0107 H       565      M_A    0.0000
   5963 C          41.1525   24.1580   28.0208 C.3     566      M_A    0.0000
   5964 C          41.3520   25.7109   28.9255 C.3     566      M_A    0.0000
   5965 C          43.1055   26.1845   28.9982 C.2     566      M_A    0.0000
   5966 N          43.4251   27.6061   29.7133 N.3     566      M_A    0.0000
   5967 O          44.2030   25.3842   28.5008 O.2     566      M_A    0.0000
   5968 H          40.9583   24.3545   26.7593 H       566      M_A    0.0000
   5969 H          40.1052   23.5294   28.4463 H       566      M_A    0.0000
   5970 H          40.9478   25.5797   30.1472 H       566      M_A    0.0000
   5971 H          42.5791   28.4533   29.6855 H       566      M_A    0.0000
   5972 H          44.5540   27.9852   29.6308 H       566      M_A    0.0000
   5973 C          40.3494   27.1103   28.1569 C.3     567      M_A    0.0000
   5974 C          39.6174   28.2171   29.3853 C.3     567      M_A    0.0000
   5975 C          40.6023   28.2125   30.9132 C.2     567      M_A    0.0000
   5976 N          40.1052   29.2277   32.0781 N.3     567      M_A    0.0000
   5977 O          41.7482   27.3650   31.1599 O.2     567      M_A    0.0000
   5978 H          41.0884   27.7473   27.3110 H       567      M_A    0.0000
   5979 H          39.4180   26.5464   27.4586 H       567      M_A    0.0000
   5980 H          38.4286   27.8191   29.7039 H       567      M_A    0.0000
   5981 H          39.5195   30.2191   31.7489 H       567      M_A    0.0000
   5982 H          40.8325   29.3328   33.0187 H       567      M_A    0.0000
   5983 C          39.4573   29.9813   28.7403 C.3     568      M_A    0.0000
   5984 C          40.0149   31.2251   29.9284 C.3     568      M_A    0.0000
   5985 C          41.8022   31.0694   30.2213 C.2     568      M_A    0.0000
   5986 N          42.4564   32.1792   31.2087 N.3     568      M_A    0.0000
   5987 O          42.6466   30.0322   29.6704 O.2     568      M_A    0.0000
   5988 H          40.0767   30.0786   27.6113 H       568      M_A    0.0000
   5989 H          38.2040   30.1559   28.4723 H       568      M_A    0.0000
   5990 H          39.4314   31.0559   31.0704 H       568      M_A    0.0000
   5991 H          41.9329   33.2543   31.2729 H       568      M_A    0.0000
   5992 H          43.6477   32.1674   31.2843 H       568      M_A    0.0000
   5993 C          39.6171   32.9770   29.3566 C.3     569      M_A    0.0000
   5994 C          39.1365   34.0741   30.7112 C.3     569      M_A    0.0000
   5995 C          40.2407   33.8464   32.1371 C.2     569      M_A    0.0000
   5996 N          39.9754   34.8294   33.4012 N.3     569      M_A    0.0000
   5997 O          41.2895   32.8541   32.2250 O.2     569      M_A    0.0000
   5998 H          40.6189   33.4434   28.6884 H       569      M_A    0.0000
   5999 H          38.6460   32.8688   28.5090 H       569      M_A    0.0000
   6000 H          37.9392   33.7982   31.1159 H       569      M_A    0.0000
   6001 H          39.4912   35.9036   33.1873 H       569      M_A    0.0000
   6002 H          40.7883   34.7817   34.2740 H       569      M_A    0.0000
   6003 C          39.1417   35.8856   30.1891 C.3     570      M_A    0.0000
   6004 C          38.5974   37.0044   31.5013 C.3     570      M_A    0.0000
   6005 C          39.1774   38.6962   31.1765 C.2     570      M_A    0.0000
   6006 N          38.6911   39.8261   32.2355 N.3     570      M_A    0.0000
   6007 O          40.0434   39.0818   30.0839 O.2     570      M_A    0.0000
   6008 H          40.3134   36.1959   29.7438 H       570      M_A    0.0000
   6009 H          38.3436   35.9717   29.1748 H       570      M_A    0.0000
   6010 H          39.0989   36.6476   32.6390 H       570      M_A    0.0000
   6011 H          37.6552   39.6507   32.8101 H       570      M_A    0.0000
   6012 H          38.9474   40.9547   31.9430 H       570      M_A    0.0000
   6013 C          36.7223   37.0043   31.6972 C.3     571      M_A    0.0000
   6014 C          36.0775   38.5588   32.3587 C.3     571      M_A    0.0000
   6015 C          37.3461   39.8584   32.2813 C.2     571      M_A    0.0000
   6016 N          36.8776   41.3340   32.7687 N.3     571      M_A    0.0000
   6017 O          38.7137   39.6594   31.8541 O.2     571      M_A    0.0000
   6018 H          36.1773   36.6960   30.5678 H       571      M_A    0.0000
   6019 H          36.4430   36.0312   32.5022 H       571      M_A    0.0000
   6020 H          35.7548   38.4231   33.6040 H       571      M_A    0.0000
   6021 H          35.7206   41.6225   32.6583 H       571      M_A    0.0000
   6022 H          37.6610   42.2148   32.5804 H       571      M_A    0.0000
   6023 C          34.5307   39.1283   31.4438 C.3     572      M_A    0.0000
   6024 C          33.1297   39.4404   32.5437 C.3     572      M_A    0.0000
   6025 C          32.1112   40.8043   31.9058 C.2     572      M_A    0.0000
   6026 N          30.7684   41.1406   32.7534 N.3     572      M_A    0.0000
   6027 O          32.4283   41.6039   30.7430 O.2     572      M_A    0.0000
   6028 H          34.8193   40.1603   30.7232 H       572      M_A    0.0000
   6029 H          34.2364   38.1851   30.6092 H       572      M_A    0.0000
   6030 H          33.5437   39.7976   33.7160 H       572      M_A    0.0000
   6031 H          30.2562   40.2527   33.3727 H       572      M_A    0.0000
   6032 H          30.0268   41.9328   32.2562 H       572      M_A    0.0000
   6033 C          32.0593   37.9061   32.7773 C.3     573      M_A    0.0000
   6034 C          30.8304   38.0909   34.0908 C.3     573      M_A    0.0000
   6035 C          29.4047   39.0504   33.4982 C.2     573      M_A    0.0000
   6036 N          28.1827   39.2254   34.5520 N.3     573      M_A    0.0000
   6037 O          29.3068   39.6743   32.1969 O.2     573      M_A    0.0000
   6038 H          31.5173   37.5906   31.6484 H       573      M_A    0.0000
   6039 H          32.8702   36.9397   33.0627 H       573      M_A    0.0000
   6040 H          31.3300   38.7404   35.0917 H       573      M_A    0.0000
   6041 H          28.0262   38.3737   35.3793 H       573      M_A    0.0000
   6042 H          27.1905   39.7258   34.1162 H       573      M_A    0.0000
   6043 C          30.2432   36.4246   34.7485 C.3     574      M_A    0.0000
   6044 C          30.1025   36.3822   36.5507 C.3     574      M_A    0.0000
   6045 C          28.3952   36.7366   37.0644 C.2     574      M_A    0.0000
   6046 N          28.1042   36.6511   38.6590 N.3     574      M_A    0.0000
   6047 O          27.3196   37.1082   36.1715 O.2     574      M_A    0.0000
   6048 H          29.1339   36.1063   34.1689 H       574      M_A    0.0000
   6049 H          31.1124   35.5527   34.3519 H       574      M_A    0.0000
   6050 H          30.8517   37.2906   37.0861 H       574      M_A    0.0000
   6051 H          28.7852   35.9182   39.3172 H       574      M_A    0.0000
   6052 H          26.9583   36.7380   38.9818 H       574      M_A    0.0000
   6053 C          30.6469   34.7237   37.2631 C.3     575      M_A    0.0000
   6054 C          32.1576   34.8366   38.2504 C.3     575      M_A    0.0000
   6055 C          32.0605   33.7322   39.6910 C.2     575      M_A    0.0000
   6056 N          33.3864   33.6701   40.6251 N.3     575      M_A    0.0000
   6057 O          30.9004   32.9523   40.0626 O.2     575      M_A    0.0000
   6058 H          29.6698   34.2072   37.9310 H       575      M_A    0.0000
   6059 H          30.8369   33.9406   36.2514 H       575      M_A    0.0000
   6060 H          32.3128   36.0367   38.7073 H       575      M_A    0.0000
   6061 H          34.4464   33.8917   40.1138 H       575      M_A    0.0000
   6062 H          33.3778   32.8393   41.4822 H       575      M_A    0.0000
   6063 C          33.6947   34.4250   37.2393 C.3     576      M_A    0.0000
   6064 C          34.4593   32.8572   37.7159 C.3     576      M_A    0.0000
   6065 C          33.3699   31.9337   38.8405 C.2     576      M_A    0.0000
   6066 N          33.8957   30.4642   39.2863 N.3     576      M_A    0.0000
   6067 O          32.1164   32.4235   39.3706 O.2     576      M_A    0.0000
   6068 H          33.3976   34.4563   35.9830 H       576      M_A    0.0000
   6069 H          34.5247   35.3984   37.4310 H       576      M_A    0.0000
   6070 H          35.5655   33.0667   38.3529 H       576      M_A    0.0000
   6071 H          34.6178   29.8729   38.5359 H       576      M_A    0.0000
   6072 H          33.1180   29.8006   39.9025 H       576      M_A    0.0000
   6073 C          34.8752   31.7900   36.2185 C.3     577      M_A    0.0000
   6074 C          36.6462   31.4687   36.0454 C.3     577      M_A    0.0000
   6075 C          37.4822   31.6291   37.6516 C.2     577      M_A    0.0000
   6076 N          39.0688   31.2867   37.6605 N.3     577      M_A    0.0000
   6077 O          36.8479   32.0589   38.8785 O.2     577      M_A    0.0000
   6078 H          34.1882   30.6978   36.2715 H       577      M_A    0.0000
   6079 H          34.4389   32.4325   35.1842 H       577      M_A    0.0000
   6080 H          37.1891   32.3339   35.2517 H       577      M_A    0.0000
   6081 H          39.4817   30.5097   36.8480 H       577      M_A    0.0000
   6082 H          39.5845   31.2486   38.7363 H       577      M_A    0.0000
   6083 C          36.9872   29.7617   35.3216 C.3     578      M_A    0.0000
   6084 C          37.7037   28.6125   36.5199 C.3     578      M_A    0.0000
   6085 C          36.7542   28.6353   38.0699 C.2     578      M_A    0.0000
   6086 N          37.2381   27.5875   39.2112 N.3     578      M_A    0.0000
   6087 O          35.6473   29.5225   38.3526 O.2     578      M_A    0.0000
   6088 H          35.9023   29.2987   34.7962 H       578      M_A    0.0000
   6089 H          37.8072   29.9433   34.3379 H       578      M_A    0.0000
   6090 H          38.9137   28.9612   36.8159 H       578      M_A    0.0000
   6091 H          37.7780   26.5788   38.8571 H       578      M_A    0.0000
   6092 H          36.5285   27.4983   40.1669 H       578      M_A    0.0000
   6093 C          37.7818   26.8517   35.8509 C.3     579      M_A    0.0000
   6094 C          36.4232   25.8100   36.4329 C.3     579      M_A    0.0000
   6095 C          36.7452   25.2311   38.1257 C.2     579      M_A    0.0000
   6096 N          35.5657   24.3491   38.8079 N.3     579      M_A    0.0000
   6097 O          37.9620   25.4743   38.8691 O.2     579      M_A    0.0000
   6098 H          37.8443   26.8897   34.5616 H       579      M_A    0.0000
   6099 H          38.9132   26.3649   36.2457 H       579      M_A    0.0000
   6100 H          36.3092   24.7563   35.6913 H       579      M_A    0.0000
   6101 H          34.4398   24.5387   38.4464 H       579      M_A    0.0000
   6102 H          35.7122   24.0948   39.9650 H       579      M_A    0.0000
   6103 C          34.7679   26.7104   36.3756 C.3     580      M_A    0.0000
   6104 C          34.1415   27.1500   38.0139 C.3     580      M_A    0.0000
   6105 C          35.4952   27.7344   39.0771 C.2     580      M_A    0.0000
   6106 N          35.0633   28.2423   40.5570 N.3     580      M_A    0.0000
   6107 O          36.8940   27.7465   38.7091 O.2     580      M_A    0.0000
   6108 H          34.8716   27.7412   35.6046 H       580      M_A    0.0000
   6109 H          33.9410   25.9094   35.7859 H       580      M_A    0.0000
   6110 H          33.6271   26.1156   38.5958 H       580      M_A    0.0000
   6111 H          33.9589   28.6825   40.7013 H       580      M_A    0.0000
   6112 H          35.9257   28.7611   41.1988 H       580      M_A    0.0000
   6113 C          32.7930   28.4644   37.9255 C.3     581      M_A    0.0000
   6114 C          32.2376   29.0225   39.5533 C.3     581      M_A    0.0000
   6115 C          33.1990   30.4678   40.0929 C.2     581      M_A    0.0000
   6116 N          32.7514   31.1272   41.5069 N.3     581      M_A    0.0000
   6117 O          34.3229   31.0315   39.3777 O.2     581      M_A    0.0000
   6118 H          33.2030   29.4448   37.1918 H       581      M_A    0.0000
   6119 H          31.8075   27.9285   37.2815 H       581      M_A    0.0000
   6120 H          32.4227   28.0971   40.4380 H       581      M_A    0.0000
   6121 H          31.6089   31.0104   41.8461 H       581      M_A    0.0000
   6122 H          33.2823   32.1585   41.7887 H       581      M_A    0.0000
   6123 C          30.3999   29.4432   39.5670 C.3     582      M_A    0.0000
   6124 C          29.8761   30.2879   41.0776 C.3     582      M_A    0.0000
   6125 C          30.2356   32.0665   40.9696 C.2     582      M_A    0.0000
   6126 N          29.7420   32.9654   42.2278 N.3     582      M_A    0.0000
   6127 O          30.9391   32.7068   39.8800 O.2     582      M_A    0.0000
   6128 H          30.1121   30.1234   38.5077 H       582      M_A    0.0000
   6129 H          29.7709   28.3194   39.4476 H       582      M_A    0.0000
   6130 H          30.5266   29.8349   42.0998 H       582      M_A    0.0000
   6131 H          28.7949   32.5852   42.8544 H       582      M_A    0.0000
   6132 H          29.8448   34.1469   42.0922 H       582      M_A    0.0000
   6133 C          28.0417   30.0327   41.4300 C.3     583      M_A    0.0000
   6134 C          26.9827   31.2273   40.5809 C.3     583      M_A    0.0000
   6135 C          25.2298   30.8278   40.8496 C.2     583      M_A    0.0000
   6136 N          24.1611   31.8685   40.2098 N.3     583      M_A    0.0000
   6137 O          24.7423   29.6602   41.5504 O.2     583      M_A    0.0000
   6138 H          27.7204   28.8143   41.1470 H       583      M_A    0.0000
   6139 H          27.9002   30.1476   42.7105 H       583      M_A    0.0000
   6140 H          27.1854   31.1866   39.3040 H       583      M_A    0.0000
   6141 H          24.4987   33.0093   40.0729 H       583      M_A    0.0000
   6142 H          23.0197   31.6887   40.5096 H       583      M_A    0.0000
   6143 C          27.3223   32.9954   41.1403 C.3     584      M_A    0.0000
   6144 C          25.8942   34.0878   40.9474 C.3     584      M_A    0.0000
   6145 C          25.7996   35.2621   42.3318 C.2     584      M_A    0.0000
   6146 N          24.6081   36.3609   42.2470 N.3     584      M_A    0.0000
   6147 O          26.6743   35.2597   43.4839 O.2     584      M_A    0.0000
   6148 H          27.7590   32.9799   42.3554 H       584      M_A    0.0000
   6149 H          28.3059   33.4210   40.4162 H       584      M_A    0.0000
   6150 H          24.7956   33.4050   40.9587 H       584      M_A    0.0000
   6151 H          24.2167   36.6846   41.1624 H       584      M_A    0.0000
   6152 H          24.6353   37.2196   43.0757 H       584      M_A    0.0000
   6153 C          25.9429   35.0332   39.3171 C.3     585      M_A    0.0000
   6154 C          25.5976   33.9902   37.8809 C.3     585      M_A    0.0000
   6155 C          26.9241   32.7695   37.6471 C.2     585      M_A    0.0000
   6156 N          26.7045   31.7093   36.4379 N.3     585      M_A    0.0000
   6157 O          28.1399   32.7046   38.4280 O.2     585      M_A    0.0000
   6158 H          25.1396   36.0419   39.3870 H       585      M_A    0.0000
   6159 H          27.1320   35.5337   39.2249 H       585      M_A    0.0000
   6160 H          25.5498   34.7035   36.8029 H       585      M_A    0.0000
   6161 H          25.5811   31.4368   36.1249 H       585      M_A    0.0000
   6162 H          27.4990   30.8205   36.3775 H       585      M_A    0.0000
   6163 C          23.9408   33.1038   38.0334 C.3     586      M_A    0.0000
   6164 C          22.9864   33.1132   36.4975 C.3     586      M_A    0.0000
   6165 C          23.3902   31.6562   35.4884 C.2     586      M_A    0.0000
   6166 N          22.5441   31.4920   34.1129 N.3     586      M_A    0.0000
   6167 O          24.4081   30.6800   35.8094 O.2     586      M_A    0.0000
   6168 H          24.1389   31.9057   38.4726 H       586      M_A    0.0000
   6169 H          23.2864   33.7183   38.9647 H       586      M_A    0.0000
   6170 H          23.2791   34.1542   35.7876 H       586      M_A    0.0000
   6171 H          21.4431   31.9611   34.0697 H       586      M_A    0.0000
   6172 H          22.7030   30.4645   33.5265 H       586      M_A    0.0000
   6173 C          21.1297   33.1658   36.8197 C.3     587      M_A    0.0000
   6174 C          20.1529   32.4931   35.4547 C.3     587      M_A    0.0000
   6175 C          20.4656   33.4276   33.9272 C.2     587      M_A    0.0000
   6176 N          19.7140   32.8802   32.5968 N.3     587      M_A    0.0000
   6177 O          21.2931   34.6102   33.8320 O.2     587      M_A    0.0000
   6178 H          20.8754   32.5695   37.9365 H       587      M_A    0.0000
   6179 H          20.8303   34.4101   37.0069 H       587      M_A    0.0000
   6180 H          18.8884   32.5980   35.7065 H       587      M_A    0.0000
   6181 H          19.4502   31.7135   32.5389 H       587      M_A    0.0000
   6182 H          20.0327   33.4003   31.5707 H       587      M_A    0.0000
   6183 C          20.5107   30.6652   35.1635 C.3     588      M_A    0.0000
   6184 C          19.3600   29.8927   34.0020 C.3     588      M_A    0.0000
   6185 C          17.6465   30.3426   34.4095 C.2     588      M_A    0.0000
   6186 N          16.5084   29.7834   33.3962 N.3     588      M_A    0.0000
   6187 O          17.2433   31.1187   35.5616 O.2     588      M_A    0.0000
   6188 H          21.7395   30.5271   34.7912 H       588      M_A    0.0000
   6189 H          20.4245   30.0913   36.3194 H       588      M_A    0.0000
   6190 H          19.4372   28.6036   34.0761 H       588      M_A    0.0000
   6191 H          16.8179   29.5838   32.2566 H       588      M_A    0.0000
   6192 H          15.4040   30.1984   33.5778 H       588      M_A    0.0000
   6193 C          19.7324   30.3689   32.2163 C.3     589      M_A    0.0000
   6194 C          18.2550   30.8317   31.2820 C.3     589      M_A    0.0000
   6195 C          17.9686   32.6235   31.3904 C.2     589      M_A    0.0000
   6196 N          16.7171   33.1932   30.5281 N.3     589      M_A    0.0000
   6197 O          18.7440   33.5411   32.1961 O.2     589      M_A    0.0000
   6198 H          20.6252   31.3018   32.2029 H       589      M_A    0.0000
   6199 H          20.2921   29.3357   31.6758 H       589      M_A    0.0000
   6200 H          17.2073   30.2538   31.7738 H       589      M_A    0.0000
   6201 H          16.3951   32.5963   29.5410 H       589      M_A    0.0000
   6202 H          16.6186   34.3819   30.4811 H       589      M_A    0.0000
   6203 C          18.3737   30.3176   29.4721 C.3     590      M_A    0.0000
   6204 C          19.4874   31.3662   28.5077 C.3     590      M_A    0.0000
   6205 C          21.1722   31.2990   29.1868 C.2     590      M_A    0.0000
   6206 N          22.2987   32.1322   28.3674 N.3     590      M_A    0.0000
   6207 O          21.5544   30.5957   30.3916 O.2     590      M_A    0.0000
   6208 H          18.7042   29.0710   29.4055 H       590      M_A    0.0000
   6209 H          17.1734   30.3913   28.9959 H       590      M_A    0.0000
   6210 H          19.1093   32.6020   28.5637 H       590      M_A    0.0000
   6211 H          22.1353   32.2946   27.1922 H       590      M_A    0.0000
   6212 H          23.4258   31.9697   28.7256 H       590      M_A    0.0000
   6213 C          19.5182   30.8775   26.6872 C.3     591      M_A    0.0000
   6214 C          20.6809   31.8574   25.7086 C.3     591      M_A    0.0000
   6215 C          21.8225   32.7629   26.7955 C.2     591      M_A    0.0000
   6216 N          22.9778   33.6236   26.0479 N.3     591      M_A    0.0000
   6217 O          21.7496   32.7879   28.2399 O.2     591      M_A    0.0000
   6218 H          19.7523   29.6112   26.5913 H       591      M_A    0.0000
   6219 H          18.3144   31.0492   26.2464 H       591      M_A    0.0000
   6220 H          20.0504   32.7420   25.0063 H       591      M_A    0.0000
   6221 H          23.3472   33.2539   24.9703 H       591      M_A    0.0000
   6222 H          23.8128   34.0965   26.7579 H       591      M_A    0.0000
   6223 C          21.6645   30.7914   24.5043 C.3     592      M_A    0.0000
   6224 C          22.7184   31.7582   23.3977 C.3     592      M_A    0.0000
   6225 C          22.0357   33.4269   23.1654 C.2     592      M_A    0.0000
   6226 N          22.9259   34.4350   22.2566 N.3     592      M_A    0.0000
   6227 O          20.7729   33.8890   23.6983 O.2     592      M_A    0.0000
   6228 H          22.3380   29.9120   25.1680 H       592      M_A    0.0000
   6229 H          20.7943   30.1257   23.8169 H       592      M_A    0.0000
   6230 H          22.7731   31.2089   22.2279 H       592      M_A    0.0000
   6231 H          24.1110   34.2653   22.2234 H       592      M_A    0.0000
   6232 H          22.5545   35.5690   22.2255 H       592      M_A    0.0000
   6233 C          24.4881   31.8811   24.0360 C.3     593      M_A    0.0000
   6234 C          25.7090   31.2262   22.8740 C.3     593      M_A    0.0000
   6235 C          26.0718   32.4467   21.5767 C.2     593      M_A    0.0000
   6236 N          27.2163   32.0227   20.5068 N.3     593      M_A    0.0000
   6237 O          25.4036   33.7206   21.4249 O.2     593      M_A    0.0000
   6238 H          24.7381   33.1055   24.3615 H       593      M_A    0.0000
   6239 H          24.5219   31.2076   25.1397 H       593      M_A    0.0000
   6240 H          25.2509   30.1723   22.2802 H       593      M_A    0.0000
   6241 H          28.0693   31.2627   20.8661 H       593      M_A    0.0000
   6242 H          27.5579   32.8779   19.7473 H       593      M_A    0.0000
   6243 C          27.3083   30.7252   23.7374 C.3     594      M_A    0.0000
   6244 C          28.5469   32.0425   23.7579 C.3     594      M_A    0.0000
   6245 C          27.7669   33.6544   23.4454 C.2     594      M_A    0.0000
   6246 N          28.7521   34.9424   23.5163 N.3     594      M_A    0.0000
   6247 O          26.3720   33.8523   23.1178 O.2     594      M_A    0.0000
   6248 H          27.0343   30.3001   24.9255 H       594      M_A    0.0000
   6249 H          27.7624   29.7009   23.0911 H       594      M_A    0.0000
   6250 H          29.4195   31.8598   22.8206 H       594      M_A    0.0000
   6251 H          29.7189   34.8739   24.2198 H       594      M_A    0.0000
   6252 H          28.2169   36.0078   23.4579 H       594      M_A    0.0000
   6253 C          29.4895   32.1006   25.3895 C.3     595      M_A    0.0000
   6254 C          30.0763   30.4775   25.9288 C.3     595      M_A    0.0000
   6255 C          31.8849   30.3727   25.7797 C.2     595      M_A    0.0000
   6256 N          32.5594   28.9940   26.3079 N.3     595      M_A    0.0000
   6257 O          32.7318   31.3974   25.2096 O.2     595      M_A    0.0000
   6258 H          30.4523   32.9558   25.2935 H       595      M_A    0.0000
   6259 H          28.6697   32.5875   26.2635 H       595      M_A    0.0000
   6260 H          29.5834   29.5448   25.1802 H       595      M_A    0.0000
   6261 H          31.9960   28.3867   27.1726 H       595      M_A    0.0000
   6262 H          33.7524   28.9828   26.3470 H       595      M_A    0.0000
   6263 C          29.5637   30.0942   27.7021 C.3     596      M_A    0.0000
   6264 C          29.3923   28.3232   28.0246 C.3     596      M_A    0.0000
   6265 C          28.9868   28.0309   29.7723 C.2     596      M_A    0.0000
   6266 N          28.7226   26.4842   30.1879 N.3     596      M_A    0.0000
   6267 O          28.9165   29.0554   30.7910 O.2     596      M_A    0.0000
   6268 H          30.3948   30.6559   28.5153 H       596      M_A    0.0000
   6269 H          28.4304   30.6894   27.8875 H       596      M_A    0.0000
   6270 H          30.5064   27.7092   27.7901 H       596      M_A    0.0000
   6271 H          28.3107   25.7376   29.3470 H       596      M_A    0.0000
   6272 H          28.3139   26.3080   31.2956 H       596      M_A    0.0000
   6273 C          28.0800   27.5291   26.9285 C.3     597      M_A    0.0000
   6274 C          28.6258   25.9770   26.1783 C.3     597      M_A    0.0000
   6275 C          30.3611   26.1004   25.6513 C.2     597      M_A    0.0000
   6276 N          31.0102   24.7475   25.0323 N.3     597      M_A    0.0000
   6277 O          31.1662   27.3002   25.7190 O.2     597      M_A    0.0000
   6278 H          26.9917   27.3818   27.6078 H       597      M_A    0.0000
   6279 H          27.8073   28.3943   26.0065 H       597      M_A    0.0000
   6280 H          27.9299   25.7150   25.1199 H       597      M_A    0.0000
   6281 H          30.5707   23.6946   25.3960 H       597      M_A    0.0000
   6282 H          32.1850   24.7850   24.8240 H       597      M_A    0.0000
   6283 C          28.4226   24.5153   27.3516 C.3     598      M_A    0.0000
   6284 C          29.6965   23.2501   27.1368 C.3     598      M_A    0.0000
   6285 C          31.3341   23.9178   27.5572 C.2     598      M_A    0.0000
   6286 N          32.5666   22.8639   27.4881 N.3     598      M_A    0.0000
   6287 O          31.6040   25.2945   27.9095 O.2     598      M_A    0.0000
   6288 H          28.3722   24.9499   28.5666 H       598      M_A    0.0000
   6289 H          27.2556   24.0144   27.1062 H       598      M_A    0.0000
   6290 H          29.7528   22.8675   25.9024 H       598      M_A    0.0000
   6291 H          32.3283   21.7055   27.6769 H       598      M_A    0.0000
   6292 H          33.6123   23.2617   27.9042 H       598      M_A    0.0000
   6293 C          29.3515   21.7164   28.1776 C.3     599      M_A    0.0000
   6294 C          30.0670   21.8079   29.8357 C.3     599      M_A    0.0000
   6295 C          29.1010   22.9355   30.8845 C.2     599      M_A    0.0000
   6296 N          29.5835   23.0517   32.4299 N.3     599      M_A    0.0000
   6297 O          27.9821   23.7341   30.4344 O.2     599      M_A    0.0000
   6298 H          28.0783   21.5035   28.2111 H       599      M_A    0.0000
   6299 H          29.8602   20.7186   27.5306 H       599      M_A    0.0000
   6300 H          31.2702   22.2804   29.7856 H       599      M_A    0.0000
   6301 H          30.1375   22.1095   32.9192 H       599      M_A    0.0000
   6302 H          28.8648   23.6742   33.1515 H       599      M_A    0.0000
   6303 C          30.1704   20.1132   30.6552 C.3     600      M_A    0.0000
   6304 C          29.0496   19.9357   32.0630 C.2     600      M_A    0.0000
   6305 C          27.4494   19.2641   31.5219 C.2     600      M_A    0.0000
   6306 N          26.3695   18.9747   32.6986 N.3     600      M_A    0.0000
   6307 O          27.0786   19.0076   30.1475 O.2     600      M_A    0.0000
   6308 H          29.9772   19.1984   29.7645 H       600      M_A    0.0000
   6309 H          31.3959   19.9743   31.0450 H       600      M_A    0.0000
   6310 H          28.8106   21.0875   32.6010 H       600      M_A    0.0000
   6311 H          26.7838   18.7203   33.7931 H       600      M_A    0.0000
   6312 H          25.3791   18.3992   32.3627 H       600      M_A    0.0000
   6313 C          12.5881   28.8406   19.0641 C.2     601      M_A    0.0000
   6314 C          12.7463   29.6386   20.3857 C.3     601      M_A    0.0000
   6315 C          11.5465   30.6166   20.5802 C.2     601      M_A    0.0000
   6316 N          11.5403   31.3405   21.7703 N.3     601      M_A    0.0000
   6317 O          10.6385   30.8036   19.7546 O.2     601      M_A    0.0000
   6318 H          12.3235   27.7803   19.2484 H       601      M_A    0.0000
   6319 H          13.5521   28.8219   18.5141 H       601      M_A    0.0000
   6320 H          13.6664   30.2591   20.3584 H       601      M_A    0.0000
   6321 H          12.0014   30.9264   22.5902 H       601      M_A    0.0000
   6322 H          10.6926   31.8853   21.9549 H       601      M_A    0.0000
   6323 C          12.8672   28.6642   21.6716 C.3     602      M_A    0.0000
   6324 C          14.3110   28.1484   21.9116 C.3     602      M_A    0.0000
   6325 C          15.3547   29.1799   21.3822 C.2     602      M_A    0.0000
   6326 N          16.6919   28.8594   21.6050 N.3     602      M_A    0.0000
   6327 O          15.0777   30.2241   20.7706 O.2     602      M_A    0.0000
   6328 H          12.4583   29.1828   22.5616 H       602      M_A    0.0000
   6329 H          12.1858   27.8095   21.4784 H       602      M_A    0.0000
   6330 H          14.4838   27.2021   21.3574 H       602      M_A    0.0000
   6331 H          16.9192   28.2720   22.4172 H       602      M_A    0.0000
   6332 H          17.3694   29.5917   21.3723 H       602      M_A    0.0000
   6333 C          14.5937   27.8427   23.4750 C.3     603      M_A    0.0000
   6334 C          15.9822   27.1975   23.7285 C.3     603      M_A    0.0000
   6335 C          16.1520   26.8420   25.2380 C.2     603      M_A    0.0000
   6336 N          17.3351   26.1906   25.5787 N.3     603      M_A    0.0000
   6337 O          15.3353   27.1179   26.1313 O.2     603      M_A    0.0000
   6338 H          14.4559   28.7743   24.0593 H       603      M_A    0.0000
   6339 H          13.7887   27.1542   23.8070 H       603      M_A    0.0000
   6340 H          16.7950   27.9087   23.4717 H       603      M_A    0.0000
   6341 H          17.7925   25.6129   24.8622 H       603      M_A    0.0000
   6342 H          17.3913   25.8457   26.5417 H       603      M_A    0.0000
   6343 C          16.2080   25.8717   22.8291 C.3     604      M_A    0.0000
   6344 C          17.2222   24.8770   23.4537 C.3     604      M_A    0.0000
   6345 C          17.0586   23.4605   22.8209 C.2     604      M_A    0.0000
   6346 N          17.9648   22.4946   23.2525 N.3     604      M_A    0.0000
   6347 O          16.1821   23.1432   22.0012 O.2     604      M_A    0.0000
   6348 H          15.2275   25.3949   22.6301 H       604      M_A    0.0000
   6349 H          16.5794   26.2245   21.8443 H       604      M_A    0.0000
   6350 H          17.0388   24.7663   24.5430 H       604      M_A    0.0000
   6351 H          18.8895   22.8084   23.5731 H       604      M_A    0.0000
   6352 H          17.9393   21.6038   22.7472 H       604      M_A    0.0000
   6353 C          18.7504   25.3782   23.2769 C.3     605      M_A    0.0000
   6354 C          19.7444   24.6464   24.2175 C.3     605      M_A    0.0000
   6355 C          19.9736   23.1804   23.7358 C.2     605      M_A    0.0000
   6356 N          20.9041   22.4412   24.4626 N.3     605      M_A    0.0000
   6357 O          19.3780   22.6395   22.7904 O.2     605      M_A    0.0000
   6358 H          19.0429   25.2872   22.2119 H       605      M_A    0.0000
   6359 H          18.7479   26.4658   23.4992 H       605      M_A    0.0000
   6360 H          19.3342   24.5866   25.2473 H       605      M_A    0.0000
   6361 H          21.6624   22.9493   24.9349 H       605      M_A    0.0000
   6362 H          21.1472   21.5257   24.0723 H       605      M_A    0.0000
   6363 C          21.1648   25.4149   24.3148 C.3     606      M_A    0.0000
   6364 C          22.1299   24.7826   25.3526 C.3     606      M_A    0.0000
   6365 C          23.4386   25.6243   25.4652 C.2     606      M_A    0.0000
   6366 N          24.3568   25.1938   26.4202 N.3     606      M_A    0.0000
   6367 O          23.7159   26.6081   24.7609 O.2     606      M_A    0.0000
   6368 H          21.6190   25.4706   23.3054 H       606      M_A    0.0000
   6369 H          20.9321   26.4618   24.6012 H       606      M_A    0.0000
   6370 H          22.4296   23.7621   25.0347 H       606      M_A    0.0000
   6371 H          23.9994   24.6907   27.2421 H       606      M_A    0.0000
   6372 H          25.1546   25.8157   26.5819 H       606      M_A    0.0000
   6373 C          21.4451   24.6445   26.8120 C.3     607      M_A    0.0000
   6374 C          22.2043   23.6703   27.7516 C.3     607      M_A    0.0000
   6375 C          23.7312   23.6818   27.4320 C.2     607      M_A    0.0000
   6376 N          24.5304   22.8962   28.2594 N.3     607      M_A    0.0000
   6377 O          24.2593   24.3075   26.4989 O.2     607      M_A    0.0000
   6378 H          21.3352   25.6523   27.2598 H       607      M_A    0.0000
   6379 H          20.4128   24.2760   26.6367 H       607      M_A    0.0000
   6380 H          21.8513   22.6287   27.6003 H       607      M_A    0.0000
   6381 H          24.2099   22.7260   29.2210 H       607      M_A    0.0000
   6382 H          25.5413   23.0014   28.1312 H       607      M_A    0.0000
   6383 C          21.9729   24.0293   29.3122 C.3     608      M_A    0.0000
   6384 C          21.7304   22.7770   30.1960 C.3     608      M_A    0.0000
   6385 C          20.2316   22.3485   30.1368 C.2     608      M_A    0.0000
   6386 N          19.9033   21.1900   30.8373 N.3     608      M_A    0.0000
   6387 O          19.3355   22.9704   29.5441 O.2     608      M_A    0.0000
   6388 H          22.8255   24.6362   29.6769 H       608      M_A    0.0000
   6389 H          21.0871   24.6972   29.3489 H       608      M_A    0.0000
   6390 H          21.9599   23.0000   31.2590 H       608      M_A    0.0000
   6391 H          20.6344   20.4790   30.9650 H       608      M_A    0.0000
   6392 H          18.9511   20.8397   30.6959 H       608      M_A    0.0000
   6393 C          22.6688   21.5341   29.7572 C.3     609      M_A    0.0000
   6394 C          21.9082   20.1822   29.7128 C.3     609      M_A    0.0000
   6395 C          20.6491   20.2334   30.6324 C.2     609      M_A    0.0000
   6396 N          19.8430   19.0974   30.6218 N.3     609      M_A    0.0000
   6397 O          20.3436   21.1840   31.3702 O.2     609      M_A    0.0000
   6398 H          23.1554   21.7688   28.7895 H       609      M_A    0.0000
   6399 H          23.4879   21.4847   30.5048 H       609      M_A    0.0000
   6400 H          22.5512   19.3608   30.0926 H       609      M_A    0.0000
   6401 H          19.8329   18.5199   29.7716 H       609      M_A    0.0000
   6402 H          18.9542   19.1782   31.1246 H       609      M_A    0.0000
   6403 C          21.4665   19.7840   28.2081 C.3     610      M_A    0.0000
   6404 C          21.8375   18.3254   27.8300 C.2     610      M_A    0.0000
   6405 C          20.6632   17.3570   28.1719 C.2     610      M_A    0.0000
   6406 N          20.8510   16.0244   27.8120 N.3     610      M_A    0.0000
   6407 O          19.6147   17.6845   28.7502 O.2     610      M_A    0.0000
   6408 H          20.3837   19.9833   28.0813 H       610      M_A    0.0000
   6409 H          21.9872   20.4954   27.5335 H       610      M_A    0.0000
   6410 H          22.7175   17.9833   28.4140 H       610      M_A    0.0000
   6411 H          21.4662   15.8214   27.0141 H       610      M_A    0.0000
   6412 H          20.0344   15.4153   27.9203 H       610      M_A    0.0000
   6413 C          15.6120   91.2480   20.7088 C.2     611      M_A    0.0000
   6414 C          15.9974   90.0995   21.6521 C.3     611      M_A    0.0000
   6415 C          17.3149   89.4406   21.1911 C.2     611      M_A    0.0000
   6416 N          17.8006   88.4376   22.0021 N.3     611      M_A    0.0000
   6417 O          17.9254   89.7277   20.1648 O.2     611      M_A    0.0000
   6418 H          14.5334   91.2746   20.5132 H       611      M_A    0.0000
   6419 H          16.0913   91.1078   19.7306 H       611      M_A    0.0000
   6420 H          15.2279   89.3159   21.6398 H       611      M_A    0.0000
   6421 H          17.5689   88.4686   22.9917 H       611      M_A    0.0000
   6422 H          18.7246   88.0922   21.7691 H       611      M_A    0.0000
   6423 C          16.1440   90.5918   23.1682 C.3     612      M_A    0.0000
   6424 C          16.4592   89.7171   24.0522 C.3     612      M_A    0.0000
   6425 C          15.5008   89.5687   24.9025 C.2     612      M_A    0.0000
   6426 N          15.6636   88.7601   25.7061 N.3     612      M_A    0.0000
   6427 O          14.6378   90.1239   24.9202 O.2     612      M_A    0.0000
   6428 H          16.7385   91.2887   23.1476 H       612      M_A    0.0000
   6429 H          15.3293   90.9628   23.3701 H       612      M_A    0.0000
   6430 H          17.1961   89.9895   24.5265 H       612      M_A    0.0000
   6431 H          16.1650   88.1014   25.5143 H       612      M_A    0.0000
   6432 H          14.9952   88.5907   26.1979 H       612      M_A    0.0000
   6433 C          16.7596   88.5350   23.5030 C.3     613      M_A    0.0000
   6434 C          16.3644   87.5376   24.2065 C.3     613      M_A    0.0000
   6435 C          15.3504   87.8695   24.9310 C.2     613      M_A    0.0000
   6436 N          14.8836   87.0240   25.5583 N.3     613      M_A    0.0000
   6437 O          14.9586   88.8157   24.9979 O.2     613      M_A    0.0000
   6438 H          16.4275   88.5062   22.6495 H       613      M_A    0.0000
   6439 H          17.6731   88.5167   23.4175 H       613      M_A    0.0000
   6440 H          17.0261   87.2674   24.7824 H       613      M_A    0.0000
   6441 H          14.9568   86.2272   25.2724 H       613      M_A    0.0000
   6442 H          14.1581   87.2154   25.9512 H       613      M_A    0.0000
   6443 C          16.0484   86.4826   23.4475 C.3     614      M_A    0.0000
   6444 C          17.0506   86.0075   22.8027 C.3     614      M_A    0.0000
   6445 C          17.6991   85.1650   23.5329 C.2     614      M_A    0.0000
   6446 N          18.5864   84.6374   23.0224 N.3     614      M_A    0.0000
   6447 O          17.4936   84.9576   24.5168 O.2     614      M_A    0.0000
   6448 H          15.6429   85.8472   23.9684 H       614      M_A    0.0000
   6449 H          15.4059   86.7726   22.8598 H       614      M_A    0.0000
   6450 H          17.6386   86.6769   22.5825 H       614      M_A    0.0000
   6451 H          18.5581   84.5330   22.1797 H       614      M_A    0.0000
   6452 H          18.9457   84.0111   23.4651 H       614      M_A    0.0000
   6453 C          16.6786   85.4190   21.6605 C.3     615      M_A    0.0000
   6454 C          16.9832   86.1033   20.6188 C.3     615      M_A    0.0000
   6455 C          18.1477   85.7640   20.1803 C.2     615      M_A    0.0000
   6456 N          18.4891   86.2822   19.2101 N.3     615      M_A    0.0000
   6457 O          18.7789   85.0975   20.6392 O.2     615      M_A    0.0000
   6458 H          17.0284   84.5727   21.6297 H       615      M_A    0.0000
   6459 H          15.7685   85.3128   21.7113 H       615      M_A    0.0000
   6460 H          17.0252   86.9974   20.8217 H       615      M_A    0.0000
   6461 H          17.8917   86.5446   18.6658 H       615      M_A    0.0000
   6462 H          19.2038   85.9850   18.8666 H       615      M_A    0.0000
   6463 C          16.0776   85.9629   19.6444 C.3     616      M_A    0.0000
   6464 C          16.4592   86.4631   18.5263 C.3     616      M_A    0.0000
   6465 C          17.6403   86.0430   18.2232 C.2     616      M_A    0.0000
   6466 N          18.0506   86.3907   17.2048 N.3     616      M_A    0.0000
   6467 O          18.2280   85.4536   18.8236 O.2     616      M_A    0.0000
   6468 H          15.8540   85.0779   19.5661 H       616      M_A    0.0000
   6469 H          15.3188   86.3887   19.9362 H       616      M_A    0.0000
   6470 H          16.5082   87.3778   18.5826 H       616      M_A    0.0000
   6471 H          17.4929   86.5669   16.5884 H       616      M_A    0.0000
   6472 H          18.7781   86.0328   16.9601 H       616      M_A    0.0000
   6473 C          15.6110   86.1751   17.5329 C.3     617      M_A    0.0000
   6474 C          16.0617   86.4983   16.3760 C.3     617      M_A    0.0000
   6475 C          16.6318   87.6544   16.4203 C.2     617      M_A    0.0000
   6476 N          17.1218   88.0101   15.4407 N.3     617      M_A    0.0000
   6477 O          16.6567   88.2678   17.2427 O.2     617      M_A    0.0000
   6478 H          15.3846   85.2884   17.5776 H       617      M_A    0.0000
   6479 H          14.8402   86.6403   17.7107 H       617      M_A    0.0000
   6480 H          15.3759   86.5627   15.7696 H       617      M_A    0.0000
   6481 H          17.4025   87.4204   14.8972 H       617      M_A    0.0000
   6482 H          17.5841   88.7176   15.4968 H       617      M_A    0.0000
   6483 C          16.9224   85.5908   15.9017 C.3     618      M_A    0.0000
   6484 C          16.6640   85.2327   14.6972 C.3     618      M_A    0.0000
   6485 C          17.7169   84.7431   14.1359 C.2     618      M_A    0.0000
   6486 N          17.5735   84.3377   13.0675 N.3     618      M_A    0.0000
   6487 O          18.6507   84.7126   14.5605 O.2     618      M_A    0.0000
   6488 H          17.7764   85.9110   15.9890 H       618      M_A    0.0000
   6489 H          16.8671   84.8670   16.4632 H       618      M_A    0.0000
   6490 H          16.4061   85.9559   14.1944 H       618      M_A    0.0000
   6491 H          16.8047   84.0490   12.8496 H       618      M_A    0.0000
   6492 H          18.2355   83.9234   12.7397 H       618      M_A    0.0000
   6493 C          15.6691   84.3402   14.6420 C.3     619      M_A    0.0000
   6494 C          16.0808   83.1366   14.4754 C.3     619      M_A    0.0000
   6495 C          17.1074   82.9032   15.2205 C.2     619      M_A    0.0000
   6496 N          17.5180   81.8278   15.1865 N.3     619      M_A    0.0000
   6497 O          17.5798   83.5999   15.8075 O.2     619      M_A    0.0000
   6498 H          15.1473   84.4241   15.3904 H       619      M_A    0.0000
   6499 H          15.1384   84.5910   13.9365 H       619      M_A    0.0000
   6500 H          16.3466   83.0043   13.6069 H       619      M_A    0.0000
   6501 H          16.9768   81.1991   15.0025 H       619      M_A    0.0000
   6502 H          18.1232   81.6474   15.7509 H       619      M_A    0.0000
   6503 C          15.1237   82.2389   14.7350 C.3     620      M_A    0.0000
   6504 C          15.5245   81.2774   15.4839 C.3     620      M_A    0.0000
   6505 C          14.7344   81.1313   16.4928 C.2     620      M_A    0.0000
   6506 N          14.9767   80.2526   17.1967 N.3     620      M_A    0.0000
   6507 O          13.9404   81.7431   16.7127 O.2     620      M_A    0.0000
   6508 H          14.3955   82.6685   15.0881 H       620      M_A    0.0000
   6509 H          14.8520   81.9113   13.9220 H       620      M_A    0.0000
   6510 H          16.3580   81.4589   15.8226 H       620      M_A    0.0000
   6511 H          15.3753   79.5771   16.8700 H       620      M_A    0.0000
   6512 H          14.4010   80.0931   17.7971 H       620      M_A    0.0000
   6513 C          15.6149   80.1237   14.8131 C.3     621      M_A    0.0000
   6514 C          16.8016   79.6362   14.8070 C.3     621      M_A    0.0000
   6515 C          16.7618   78.3524   14.6896 C.2     621      M_A    0.0000
   6516 N          17.7821   77.8234   14.6156 N.3     621      M_A    0.0000
   6517 O          15.9047   77.7880   14.6798 O.2     621      M_A    0.0000
   6518 H          15.0020   79.5312   15.1488 H       621      M_A    0.0000
   6519 H          15.3453   80.3044   13.9547 H       621      M_A    0.0000
   6520 H          17.2286   79.8180   15.5988 H       621      M_A    0.0000
   6521 H          18.4349   78.2583   14.2889 H       621      M_A    0.0000
   6522 H          17.7551   76.9966   14.4343 H       621      M_A    0.0000
   6523 C          17.5513   80.1540   13.8277 C.3     622      M_A    0.0000
   6524 C          17.8646   79.2966   12.9261 C.3     622      M_A    0.0000
   6525 C          18.5684   79.8527   11.9993 C.2     622      M_A    0.0000
   6526 N          18.9498   79.1509   11.1697 N.3     622      M_A    0.0000
   6527 O          18.7852   80.8543   11.9450 O.2     622      M_A    0.0000
   6528 H          17.1237   80.8831   13.4743 H       622      M_A    0.0000
   6529 H          18.3099   80.4783   14.2296 H       622      M_A    0.0000
   6530 H          17.1105   78.9625   12.5235 H       622      M_A    0.0000
   6531 H          19.0765   78.3336   11.3646 H       622      M_A    0.0000
   6532 H          19.4961   79.4937   10.6207 H       622      M_A    0.0000
   6533 C          18.5332   78.2558   13.4348 C.3     623      M_A    0.0000
   6534 C          19.5986   77.9721   12.7787 C.3     623      M_A    0.0000
   6535 C          19.4527   78.2663   11.5315 C.2     623      M_A    0.0000
   6536 N          20.3778   78.1021   10.8656 N.3     623      M_A    0.0000
   6537 O          18.5840   78.6070   11.1042 O.2     623      M_A    0.0000
   6538 H          18.7071   78.4131   14.3205 H       623      M_A    0.0000
   6539 H          17.9537   77.5444   13.4153 H       623      M_A    0.0000
   6540 H          19.7731   77.0721   12.8213 H       623      M_A    0.0000
   6541 H          21.1450   78.1579   11.2267 H       623      M_A    0.0000
   6542 H          20.3158   78.3919   10.0722 H       623      M_A    0.0000
   6543 C          20.6714   78.6045   13.2671 C.3     624      M_A    0.0000
   6544 C          21.6416   77.8115   13.5424 C.3     624      M_A    0.0000
   6545 C          22.7362   78.4750   13.7006 C.2     624      M_A    0.0000
   6546 N          23.6576   77.8568   14.0090 N.3     624      M_A    0.0000
   6547 O          22.8393   79.4853   13.5526 O.2     624      M_A    0.0000
   6548 H          20.9229   79.2652   12.6843 H       624      M_A    0.0000
   6549 H          20.3914   79.0341   14.0282 H       624      M_A    0.0000
   6550 H          21.7836   77.2243   12.8516 H       624      M_A    0.0000
   6551 H          23.5296   77.1406   14.4479 H       624      M_A    0.0000
   6552 H          24.3478   78.3029   14.2138 H       624      M_A    0.0000
   6553 C          21.3970   77.0808   14.6358 C.3     625      M_A    0.0000
   6554 C          21.9375   77.5626   15.6950 C.3     625      M_A    0.0000
   6555 C          21.5817   76.8838   16.7323 C.2     625      M_A    0.0000
   6556 N          22.0616   77.2027   17.7295 N.3     625      M_A    0.0000
   6557 O          20.9023   76.1146   16.7285 O.2     625      M_A    0.0000
   6558 H          20.4920   76.9738   14.7305 H       625      M_A    0.0000
   6559 H          21.7322   76.2437   14.4652 H       625      M_A    0.0000
   6560 H          21.6600   78.4263   15.8339 H       625      M_A    0.0000
   6561 H          22.8285   77.5677   17.7052 H       625      M_A    0.0000
   6562 H          21.9100   76.6942   18.3896 H       625      M_A    0.0000
   6563 C          23.2722   77.5869   15.6100 C.3     626      M_A    0.0000
   6564 C          23.8398   77.9554   16.7000 C.3     626      M_A    0.0000
   6565 C          25.0944   78.1798   16.5023 C.2     626      M_A    0.0000
   6566 N          25.6830   78.5731   17.4107 N.3     626      M_A    0.0000
   6567 O          25.5905   78.0147   15.6192 O.2     626      M_A    0.0000
   6568 H          23.5711   76.7684   15.3270 H       626      M_A    0.0000
   6569 H          23.4756   78.1753   14.9357 H       626      M_A    0.0000
   6570 H          23.7842   77.2924   17.3322 H       626      M_A    0.0000
   6571 H          25.2606   79.0190   17.9979 H       626      M_A    0.0000
   6572 H          26.4784   78.8187   17.2550 H       626      M_A    0.0000
   6573 C          23.2650   79.0451   17.2210 C.3     627      M_A    0.0000
   6574 C          24.1101   79.9540   17.5460 C.3     627      M_A    0.0000
   6575 C          24.8449   80.2699   16.5342 C.2     627      M_A    0.0000
   6576 N          25.5996   81.1221   16.7087 N.3     627      M_A    0.0000
   6577 O          24.8150   79.8092   15.6176 O.2     627      M_A    0.0000
   6578 H          22.6305   79.3585   16.6390 H       627      M_A    0.0000
   6579 H          22.8063   78.7627   17.9640 H       627      M_A    0.0000
   6580 H          24.6759   79.6484   18.2008 H       627      M_A    0.0000
   6581 H          25.4123   81.7078   17.2952 H       627      M_A    0.0000
   6582 H          26.0068   81.3993   16.0198 H       627      M_A    0.0000
   6583 C          23.5094   81.0491   18.0246 C.3     628      M_A    0.0000
   6584 C          24.2119   81.6657   18.9033 C.3     628      M_A    0.0000
   6585 C          25.4175   81.8374   18.4784 C.2     628      M_A    0.0000
   6586 N          26.1143   82.4350   19.1738 N.3     628      M_A    0.0000
   6587 O          25.7895   81.4678   17.5962 O.2     628      M_A    0.0000
   6588 H          23.2770   81.5948   17.3262 H       628      M_A    0.0000
   6589 H          22.7193   80.7665   18.3961 H       628      M_A    0.0000
   6590 H          24.2693   81.1715   19.6745 H       628      M_A    0.0000
   6591 H          25.7637   83.0072   19.6950 H       628      M_A    0.0000
   6592 H          26.8708   82.6370   18.8509 H       628      M_A    0.0000
   6593 C          23.6787   82.8476   19.2322 C.3     629      M_A    0.0000
   6594 C          23.4334   82.9581   20.4866 C.3     629      M_A    0.0000
   6595 C          24.4090   83.5506   21.0870 C.2     629      M_A    0.0000
   6596 N          24.2592   83.7504   22.2113 N.3     629      M_A    0.0000
   6597 O          25.2923   83.8276   20.6440 O.2     629      M_A    0.0000
   6598 H          24.2234   83.5188   18.9284 H       629      M_A    0.0000
   6599 H          22.8998   82.9199   18.7524 H       629      M_A    0.0000
   6600 H          23.3473   82.1297   20.8722 H       629      M_A    0.0000
   6601 H          23.4650   83.8467   22.4976 H       629      M_A    0.0000
   6602 H          24.8510   84.2299   22.5815 H       629      M_A    0.0000
   6603 C          22.2946   83.6203   20.7183 C.3     630      M_A    0.0000
   6604 C          21.5125   83.0086   21.5308 C.3     630      M_A    0.0000
   6605 C          22.1072   81.9874   22.0475 C.2     630      M_A    0.0000
   6606 N          21.5062   81.4032   22.8373 N.3     630      M_A    0.0000
   6607 O          23.0456   81.6602   21.7914 O.2     630      M_A    0.0000
   6608 H          22.4918   84.4681   21.0043 H       630      M_A    0.0000
   6609 H          21.8850   83.7193   19.9030 H       630      M_A    0.0000
   6610 H          20.7735   82.6909   21.0890 H       630      M_A    0.0000
   6611 H          20.9217   81.8251   23.2872 H       630      M_A    0.0000
   6612 H          21.9322   80.7990   23.2505 H       630      M_A    0.0000
   6613 C          21.0730   83.8131   22.5049 C.3     631      M_A    0.0000
   6614 C          20.1023   84.5667   22.1363 C.3     631      M_A    0.0000
   6615 C          20.5462   85.5922   21.4923 C.2     631      M_A    0.0000
   6616 N          19.7458   86.3028   21.0672 N.3     631      M_A    0.0000
   6617 O          21.5379   85.8192   21.3574 O.2     631      M_A    0.0000
   6618 H          20.8562   83.3080   23.2380 H       631      M_A    0.0000
   6619 H          21.7907   84.3264   22.7570 H       631      M_A    0.0000
   6620 H          19.6480   84.8870   22.8665 H       631      M_A    0.0000
   6621 H          18.9854   85.9774   20.8725 H       631      M_A    0.0000
   6622 H          20.0318   86.9160   20.5578 H       631      M_A    0.0000
   6623 C          19.2169   83.9093   21.3793 C.3     632      M_A    0.0000
   6624 C          18.1571   84.5907   21.1370 C.3     632      M_A    0.0000
   6625 C          18.4639   85.7465   20.6539 C.2     632      M_A    0.0000
   6626 N          17.5767   86.4141   20.3481 N.3     632      M_A    0.0000
   6627 O          19.4193   86.1061   20.5481 O.2     632      M_A    0.0000
   6628 H          19.6278   83.6286   20.6100 H       632      M_A    0.0000
   6629 H          19.0008   83.1464   21.8412 H       632      M_A    0.0000
   6630 H          17.6874   84.7417   21.9109 H       632      M_A    0.0000
   6631 H          16.8542   86.0348   20.1116 H       632      M_A    0.0000
   6632 H          17.7776   87.1264   19.9363 H       632      M_A    0.0000
   6633 C          17.3344   83.9557   20.2950 C.3     633      M_A    0.0000
   6634 C          17.9069   83.6008   19.2030 C.3     633      M_A    0.0000
   6635 C          18.3629   82.3985   19.3022 C.2     633      M_A    0.0000
   6636 N          18.8456   81.9648   18.3508 N.3     633      M_A    0.0000
   6637 O          18.3425   81.8292   20.1559 O.2     633      M_A    0.0000
   6638 H          16.9500   83.2454   20.7276 H       633      M_A    0.0000
   6639 H          16.6502   84.5402   20.1152 H       633      M_A    0.0000
   6640 H          18.6247   84.1440   19.0244 H       633      M_A    0.0000
   6641 H          18.5770   82.2549   17.5986 H       633      M_A    0.0000
   6642 H          19.0497   81.1435   18.3838 H       633      M_A    0.0000
   6643 C          17.0807   83.6830   18.1542 C.3     634      M_A    0.0000
   6644 C          17.5576   83.1411   17.0936 C.3     634      M_A    0.0000
   6645 C          16.6139   82.6043   16.3973 C.2     634      M_A    0.0000
   6646 N          16.9332   82.1402   15.3929 N.3     634      M_A    0.0000
   6647 O          15.6299   82.5478   16.6833 O.2     634      M_A    0.0000
   6648 H          16.2666   83.3307   18.3836 H       634      M_A    0.0000
   6649 H          16.9357   84.5779   18.0115 H       634      M_A    0.0000
   6650 H          18.1435   82.4689   17.3109 H       634      M_A    0.0000
   6651 H          17.6161   82.4620   15.0031 H       634      M_A    0.0000
   6652 H          16.3023   81.8822   14.8901 H       634      M_A    0.0000
   6653 C          18.2283   84.0193   16.3400 C.3     635      M_A    0.0000
   6654 C          19.4308   83.6508   16.0866 C.3     635      M_A    0.0000
   6655 C          19.5578   83.3512   14.8386 C.2     635      M_A    0.0000
   6656 N          20.6192   83.0626   14.4973 N.3     635      M_A    0.0000
   6657 O          18.7916   83.3337   14.1560 O.2     635      M_A    0.0000
   6658 H          17.7519   84.1858   15.5753 H       635      M_A    0.0000
   6659 H          18.2339   84.8081   16.8090 H       635      M_A    0.0000
   6660 H          19.6441   82.8968   16.5644 H       635      M_A    0.0000
   6661 H          21.2783   83.3879   14.9236 H       635      M_A    0.0000
   6662 H          20.7238   82.9681   13.6622 H       635      M_A    0.0000
   6663 C          20.3233   84.5910   16.4161 C.3     636      M_A    0.0000
   6664 C          20.0784   85.7291   15.8768 C.3     636      M_A    0.0000
   6665 C          19.1813   85.6098   14.9579 C.2     636      M_A    0.0000
   6666 N          18.8486   86.5890   14.4513 N.3     636      M_A    0.0000
   6667 O          18.7734   84.7217   14.6446 O.2     636      M_A    0.0000
   6668 H          20.3775   84.6483   17.3289 H       636      M_A    0.0000
   6669 H          21.1395   84.2796   16.1352 H       636      M_A    0.0000
   6670 H          20.8316   86.0624   15.4719 H       636      M_A    0.0000
   6671 H          18.9024   87.3090   14.8993 H       636      M_A    0.0000
   6672 H          18.1885   86.5245   13.9246 H       636      M_A    0.0000
   6673 C          19.6819   86.6355   16.7770 C.3     637      M_A    0.0000
   6674 C          20.5916   87.4942   17.0618 C.3     637      M_A    0.0000
   6675 C          20.0733   88.6639   17.2249 C.2     637      M_A    0.0000
   6676 N          20.8032   89.4964   17.5417 N.3     637      M_A    0.0000
   6677 O          19.0852   88.8968   17.0740 O.2     637      M_A    0.0000
   6678 H          18.9121   87.0358   16.4826 H       637      M_A    0.0000
   6679 H          19.4481   86.1646   17.5292 H       637      M_A    0.0000
   6680 H          21.1952   87.5640   16.3740 H       637      M_A    0.0000
   6681 H          21.4951   89.2749   17.9824 H       637      M_A    0.0000
   6682 H          20.4484   90.2368   17.7496 H       637      M_A    0.0000
   6683 C          21.2799   87.1511   18.1561 C.3     638      M_A    0.0000
   6684 C          21.1079   87.9628   19.1346 C.3     638      M_A    0.0000
   6685 C          19.8552   88.0608   19.4252 C.2     638      M_A    0.0000
   6686 N          19.6007   88.7242   20.3316 N.3     638      M_A    0.0000
   6687 O          19.0925   87.6154   18.9025 O.2     638      M_A    0.0000
   6688 H          21.0718   86.2886   18.3849 H       638      M_A    0.0000
   6689 H          22.1639   87.1390   17.9098 H       638      M_A    0.0000
   6690 H          21.3955   88.8047   18.9091 H       638      M_A    0.0000
   6691 H          20.1847   88.8061   20.9432 H       638      M_A    0.0000
   6692 H          18.7930   88.7053   20.5856 H       638      M_A    0.0000
   6693 C          21.7936   87.5907   20.2212 C.3     639      M_A    0.0000
   6694 C          21.6254   88.3806   21.2180 C.3     639      M_A    0.0000
   6695 C          20.4340   88.2567   21.6964 C.2     639      M_A    0.0000
   6696 N          20.2020   88.8841   22.6339 N.3     639      M_A    0.0000
   6697 O          19.6958   87.6684   21.2938 O.2     639      M_A    0.0000
   6698 H          21.5804   86.7244   20.4299 H       639      M_A    0.0000
   6699 H          22.6776   87.5794   19.9752 H       639      M_A    0.0000
   6700 H          21.7171   89.2551   20.9551 H       639      M_A    0.0000
   6701 H          20.8465   89.0849   23.1498 H       639      M_A    0.0000
   6702 H          19.4589   88.7251   23.0078 H       639      M_A    0.0000
   6703 C          22.5230   88.1645   22.1859 C.3     640      M_A    0.0000
   6704 C          21.9881   87.8370   23.3051 C.3     640      M_A    0.0000
   6705 C          20.9449   88.5596   23.5357 C.2     640      M_A    0.0000
   6706 N          20.3579   88.3025   24.4925 N.3     640      M_A    0.0000
   6707 O          20.6270   89.3394   22.9491 O.2     640      M_A    0.0000
   6708 H          23.1301   87.5407   21.9000 H       640      M_A    0.0000
   6709 H          22.9926   88.9474   22.2796 H       640      M_A    0.0000
   6710 H          22.5726   87.9849   23.9970 H       640      M_A    0.0000
   6711 H          20.3908   87.5031   24.7788 H       640      M_A    0.0000
   6712 H          19.6188   88.7046   24.5895 H       640      M_A    0.0000
   6713 C          21.6548   86.5421   23.3415 C.3     641      M_A    0.0000
   6714 C          20.5716   86.3188   23.9918 C.3     641      M_A    0.0000
   6715 C          19.8872   85.3857   23.4223 C.2     641      M_A    0.0000
   6716 N          18.9212   85.0701   23.9640 N.3     641      M_A    0.0000
   6717 O          20.1310   84.9354   22.5329 O.2     641      M_A    0.0000
   6718 H          21.6147   86.2171   22.4858 H       641      M_A    0.0000
   6719 H          22.3568   86.1078   23.7424 H       641      M_A    0.0000
   6720 H          20.0422   87.0684   24.0028 H       641      M_A    0.0000
   6721 H          18.8867   85.1655   24.8076 H       641      M_A    0.0000
   6722 H          18.5282   84.3896   23.6481 H       641      M_A    0.0000
   6723 C          20.8108   85.9873   25.2654 C.3     642      M_A    0.0000
   6724 C          19.9764   85.1294   25.7279 C.3     642      M_A    0.0000
   6725 C          19.0759   84.8547   24.8464 C.2     642      M_A    0.0000
   6726 N          18.3105   84.0479   25.1456 N.3     642      M_A    0.0000
   6727 O          18.9884   85.3113   23.9315 O.2     642      M_A    0.0000
   6728 H          21.6774   85.7005   25.3445 H       642      M_A    0.0000
   6729 H          20.7593   86.7666   25.7473 H       642      M_A    0.0000
   6730 H          19.5382   85.4684   26.4596 H       642      M_A    0.0000
   6731 H          18.5534   83.4534   25.7019 H       642      M_A    0.0000
   6732 H          17.7856   83.7935   24.5315 H       642      M_A    0.0000
   6733 C          20.5812   84.0022   26.1188 C.3     643      M_A    0.0000
   6734 C          19.7691   83.1390   26.6100 C.3     643      M_A    0.0000
   6735 C          19.0713   83.6644   27.5590 C.2     643      M_A    0.0000
   6736 N          18.2691   82.9840   28.0277 N.3     643      M_A    0.0000
   6737 O          19.1967   84.6146   27.9258 O.2     643      M_A    0.0000
   6738 H          21.0632   83.6605   25.4185 H       643      M_A    0.0000
   6739 H          21.1984   84.2485   26.7518 H       643      M_A    0.0000
   6740 H          20.2302   82.4353   26.9768 H       643      M_A    0.0000
   6741 H          17.9329   82.3712   27.5445 H       643      M_A    0.0000
   6742 H          17.7433   83.3592   28.5756 H       643      M_A    0.0000
   6743 C          18.9528   82.6323   25.6794 C.3     644      M_A    0.0000
   6744 C          17.7255   82.5961   26.0516 C.3     644      M_A    0.0000
   6745 C          17.0950   83.6396   25.6309 C.2     644      M_A    0.0000
   6746 N          15.9679   83.6730   25.8647 N.3     644      M_A    0.0000
   6747 O          17.5258   84.4279   25.1347 O.2     644      M_A    0.0000
   6748 H          19.0609   83.0981   24.8979 H       644      M_A    0.0000
   6749 H          19.2544   81.7825   25.5089 H       644      M_A    0.0000
   6750 H          17.6664   82.6006   26.9675 H       644      M_A    0.0000
   6751 H          15.5554   82.9350   25.9498 H       644      M_A    0.0000
   6752 H          15.5354   84.3034   25.5001 H       644      M_A    0.0000
   6753 C          17.1039   81.4921   25.6226 C.3     645      M_A    0.0000
   6754 C          15.8286   81.5506   25.7492 C.3     645      M_A    0.0000
   6755 C          15.3382   82.4527   24.9687 C.2     645      M_A    0.0000
   6756 N          14.1902   82.5435   24.9658 N.3     645      M_A    0.0000
   6757 O          15.8911   83.0897   24.3840 O.2     645      M_A    0.0000
   6758 H          17.3557   81.3211   24.7584 H       645      M_A    0.0000
   6759 H          17.4376   80.7990   26.1231 H       645      M_A    0.0000
   6760 H          15.6005   81.7873   26.6061 H       645      M_A    0.0000
   6761 H          13.7341   81.8510   25.1513 H       645      M_A    0.0000
   6762 H          13.8638   83.0605   24.3796 H       645      M_A    0.0000
   6763 C          15.2453   80.3734   25.4977 C.3     646      M_A    0.0000
   6764 C          14.0051   80.3456   25.8247 C.3     646      M_A    0.0000
   6765 C          13.3754   81.3375   25.2927 C.2     646      M_A    0.0000
   6766 N          12.2395   81.3692   25.4798 N.3     646      M_A    0.0000
   6767 O          13.8129   82.0890   24.7477 O.2     646      M_A    0.0000
   6768 H          15.3730   80.1560   24.6168 H       646      M_A    0.0000
   6769 H          15.7115   79.7478   25.9808 H       646      M_A    0.0000
   6770 H          13.9098   80.4266   26.7340 H       646      M_A    0.0000
   6771 H          11.8356   80.6334   25.6120 H       646      M_A    0.0000
   6772 H          11.8119   81.9581   25.0466 H       646      M_A    0.0000
   6773 C          13.4183   79.1976   25.4684 C.3     647      M_A    0.0000
   6774 C          12.8069   79.2725   24.3429 C.3     647      M_A    0.0000
   6775 C          13.6518   79.4097   23.3782 C.2     647      M_A    0.0000
   6776 N          13.2037   79.4282   22.3175 N.3     647      M_A    0.0000
   6777 O          14.6654   79.5215   23.4943 O.2     647      M_A    0.0000
   6778 H          14.0410   78.5256   25.4767 H       647      M_A    0.0000
   6779 H          12.8224   78.9959   26.1365 H       647      M_A    0.0000
   6780 H          12.2581   80.0078   24.3228 H       647      M_A    0.0000
   6781 H          12.4736   79.0144   22.1849 H       647      M_A    0.0000
   6782 H          13.7632   79.4129   21.6818 H       647      M_A    0.0000
   6783 C          12.0380   78.2014   24.1179 C.3     648      M_A    0.0000
   6784 C          12.0457   77.8243   22.8916 C.3     648      M_A    0.0000
   6785 C          11.0436   77.0488   22.6512 C.2     648      M_A    0.0000
   6786 N          10.9285   76.7015   21.5593 N.3     648      M_A    0.0000
   6787 O          10.3752   76.7147   23.3547 O.2     648      M_A    0.0000
   6788 H          12.2869   77.5270   24.6860 H       648      M_A    0.0000
   6789 H          11.1875   78.4390   24.3679 H       648      M_A    0.0000
   6790 H          12.8051   77.3429   22.7074 H       648      M_A    0.0000
   6791 H          11.2299   77.2060   20.9456 H       648      M_A    0.0000
   6792 H          10.2158   76.2801   21.3808 H       648      M_A    0.0000
   6793 C          12.0234   78.8621   22.0479 C.3     649      M_A    0.0000
   6794 C          12.0986   78.5115   20.8161 C.3     649      M_A    0.0000
   6795 C          11.6907   79.4651   20.0495 C.2     649      M_A    0.0000
   6796 N          11.7737   79.2694   18.9176 N.3     649      M_A    0.0000
   6797 O          11.2892   80.3518   20.3749 O.2     649      M_A    0.0000
   6798 H          11.2798   79.3706   22.2154 H       649      M_A    0.0000
   6799 H          12.7422   79.3880   22.2691 H       649      M_A    0.0000
   6800 H          11.5569   77.7888   20.6532 H       649      M_A    0.0000
   6801 H          12.3799   78.7389   18.6472 H       649      M_A    0.0000
   6802 H          11.6051   79.9313   18.4168 H       649      M_A    0.0000
   6803 C          13.3414   78.1576   20.4706 C.3     650      M_A    0.0000
   6804 C          13.3758   77.3350   19.4866 C.3     650      M_A    0.0000
   6805 C          14.3722   77.5994   18.7116 C.2     650      M_A    0.0000
   6806 N          14.5246   76.8785   17.8265 N.3     650      M_A    0.0000
   6807 O          15.0057   78.3997   18.8186 O.2     650      M_A    0.0000
   6808 H          13.8344   78.9118   20.3049 H       650      M_A    0.0000
   6809 H          13.7147   77.7722   21.2151 H       650      M_A    0.0000
   6810 H          12.6156   77.4095   18.9778 H       650      M_A    0.0000
   6811 H          14.2573   76.0767   17.9136 H       650      M_A    0.0000
   6812 H          15.2359   76.9894   17.3804 H       650      M_A    0.0000
   6813 C          13.4511   76.0644   19.8978 C.3     651      M_A    0.0000
   6814 C          13.7080   75.2417   18.9474 C.3     651      M_A    0.0000
   6815 C          13.3629   75.7432   17.8104 C.2     651      M_A    0.0000
   6816 N          13.6068   75.1028   16.8848 N.3     651      M_A    0.0000
   6817 O          12.8801   76.6399   17.6842 O.2     651      M_A    0.0000
   6818 H          14.0611   76.0037   20.5787 H       651      M_A    0.0000
   6819 H          12.6366   75.8672   20.2721 H       651      M_A    0.0000
   6820 H          13.2277   74.4668   19.0535 H       651      M_A    0.0000
   6821 H          14.2681   74.5712   16.9297 H       651      M_A    0.0000
   6822 H          13.4764   75.4753   16.1354 H       651      M_A    0.0000
   6823 C          15.0013   74.9016   18.9147 C.3     652      M_A    0.0000
   6824 C          15.2174   73.8019   18.2903 C.3     652      M_A    0.0000
   6825 C          15.2003   72.8063   19.1101 C.2     652      M_A    0.0000
   6826 N          15.3273   71.7642   18.6366 N.3     652      M_A    0.0000
   6827 O          15.1049   72.8837   20.1290 O.2     652      M_A    0.0000
   6828 H          15.4866   75.5958   18.5654 H       652      M_A    0.0000
   6829 H          15.2682   74.8238   19.7893 H       652      M_A    0.0000
   6830 H          16.0479   73.8110   17.8998 H       652      M_A    0.0000
   6831 H          15.0703   71.6560   17.8339 H       652      M_A    0.0000
   6832 H          15.2119   71.1070   19.1582 H       652      M_A    0.0000
   6833 C          14.3260   73.5959   17.3145 C.3     653      M_A    0.0000
   6834 C          14.8568   73.5574   16.1472 C.2     653      M_A    0.0000
   6835 C          15.1775   72.3474   15.8366 C.2     653      M_A    0.0000
   6836 N          15.6103   72.1985   14.7798 N.3     653      M_A    0.0000
   6837 O          15.0937   71.5370   16.4607 O.2     653      M_A    0.0000
   6838 H          13.8471   72.8369   17.4991 H       653      M_A    0.0000
   6839 H          13.7266   74.2891   17.3642 H       653      M_A    0.0000
   6840 H          15.6303   74.0510   16.1287 H       653      M_A    0.0000
   6841 H          15.3760   72.7437   14.1716 H       653      M_A    0.0000
   6842 H          15.7226   71.3945   14.5385 H       653      M_A    0.0000
   6843 C          44.2489   72.8921   44.7586 C.2     654      M_A    0.0000
   6844 C          44.5085   71.6109   45.5639 C.3     654      M_A    0.0000
   6845 C          45.3334   71.9261   46.8299 C.2     654      M_A    0.0000
   6846 N          45.5712   70.8615   47.6722 N.3     654      M_A    0.0000
   6847 O          45.7988   73.0272   47.1121 O.2     654      M_A    0.0000
   6848 H          43.1786   73.0642   44.5940 H       654      M_A    0.0000
   6849 H          44.6963   72.8048   43.7593 H       654      M_A    0.0000
   6850 H          45.0946   70.8954   44.9716 H       654      M_A    0.0000
   6851 H          44.8964   70.1009   47.6838 H       654      M_A    0.0000
   6852 H          46.0024   71.0911   48.5603 H       654      M_A    0.0000
   6853 C          43.1477   70.8764   45.9778 C.3     655      M_A    0.0000
   6854 C          42.7235   69.7873   44.9822 C.3     655      M_A    0.0000
   6855 C          42.4571   70.4008   43.5911 C.2     655      M_A    0.0000
   6856 N          42.1351   69.5073   42.5924 N.3     655      M_A    0.0000
   6857 O          42.4880   71.6011   43.3323 O.2     655      M_A    0.0000
   6858 H          43.2447   70.4855   46.9977 H       655      M_A    0.0000
   6859 H          42.3792   71.6595   46.0281 H       655      M_A    0.0000
   6860 H          41.7872   69.3128   45.3058 H       655      M_A    0.0000
   6861 H          42.4909   68.5577   42.6674 H       655      M_A    0.0000
   6862 H          42.0834   69.8935   41.6567 H       655      M_A    0.0000
   6863 C          43.8204   68.6281   44.8576 C.3     656      M_A    0.0000
   6864 C          43.5867   67.9569   43.8329 C.3     656      M_A    0.0000
   6865 C          43.8128   66.7419   44.0431 C.2     656      M_A    0.0000
   6866 N          43.5778   66.0484   43.1963 N.3     656      M_A    0.0000
   6867 O          44.1967   66.3680   44.8844 O.2     656      M_A    0.0000
   6868 H          44.6243   69.0105   44.8300 H       656      M_A    0.0000
   6869 H          43.8270   68.0978   45.5749 H       656      M_A    0.0000
   6870 H          44.1223   68.2081   43.1652 H       656      M_A    0.0000
   6871 H          42.9858   66.2709   42.6650 H       656      M_A    0.0000
   6872 H          43.6294   65.2449   43.3677 H       656      M_A    0.0000
   6873 C          42.3633   68.1085   43.4196 C.3     657      M_A    0.0000
   6874 C          42.0248   67.2606   42.5702 C.3     657      M_A    0.0000
   6875 C          41.0260   67.6592   41.9258 C.2     657      M_A    0.0000
   6876 N          40.6799   66.9890   41.0987 N.3     657      M_A    0.0000
   6877 O          40.5231   68.5004   42.1117 O.2     657      M_A    0.0000
   6878 H          41.8156   68.1145   44.1218 H       657      M_A    0.0000
   6879 H          42.3185   68.9272   43.0682 H       657      M_A    0.0000
   6880 H          41.7891   66.4970   42.9667 H       657      M_A    0.0000
   6881 H          41.2388   66.5037   40.7325 H       657      M_A    0.0000
   6882 H          40.0908   67.2964   40.6126 H       657      M_A    0.0000
   6883 C          42.9923   66.9816   41.7477 C.3     658      M_A    0.0000
   6884 C          42.6944   67.1856   40.5540 C.3     658      M_A    0.0000
   6885 C          41.8431   66.3515   40.1653 C.2     658      M_A    0.0000
   6886 N          41.4689   66.4878   39.1191 N.3     658      M_A    0.0000
   6887 O          41.5040   65.5849   40.7061 O.2     658      M_A    0.0000
   6888 H          43.7221   67.4305   41.9909 H       658      M_A    0.0000
   6889 H          43.1838   66.1192   41.8713 H       658      M_A    0.0000
   6890 H          43.4107   67.0872   40.0313 H       658      M_A    0.0000
   6891 H          41.4727   67.2502   38.8016 H       658      M_A    0.0000
   6892 H          40.8392   66.0054   38.8992 H       658      M_A    0.0000
   6893 C          42.2444   68.3904   40.3631 C.3     659      M_A    0.0000
   6894 C          42.6901   68.9212   39.3265 C.3     659      M_A    0.0000
   6895 C          41.8886   68.7671   38.3749 C.2     659      M_A    0.0000
   6896 N          42.1752   69.2593   37.4112 N.3     659      M_A    0.0000
   6897 O          41.0474   68.2325   38.4155 O.2     659      M_A    0.0000
   6898 H          41.3540   68.3755   40.3741 H       659      M_A    0.0000
   6899 H          42.4893   68.8642   41.0782 H       659      M_A    0.0000
   6900 H          43.4576   68.5370   39.0832 H       659      M_A    0.0000
   6901 H          42.6471   69.9362   37.4461 H       659      M_A    0.0000
   6902 H          41.6039   69.2444   36.8187 H       659      M_A    0.0000
   6903 C          42.9323   70.1877   39.4929 C.3     660      M_A    0.0000
   6904 C          43.2681   70.7646   38.4395 C.3     660      M_A    0.0000
   6905 C          42.2977   70.8349   37.6490 C.2     660      M_A    0.0000
   6906 N          42.4855   71.3881   36.6941 N.3     660      M_A    0.0000
   6907 O          41.4021   70.4236   37.8036 O.2     660      M_A    0.0000
   6908 H          42.2258   70.5734   39.8740 H       660      M_A    0.0000
   6909 H          43.5911   70.2389   40.0922 H       660      M_A    0.0000
   6910 H          43.9093   70.3059   38.0220 H       660      M_A    0.0000
   6911 H          43.0584   71.9830   36.6961 H       660      M_A    0.0000
   6912 H          41.8241   71.5218   36.2226 H       660      M_A    0.0000
   6913 C          43.7355   71.9568   38.6646 C.3     661      M_A    0.0000
   6914 C          43.8072   72.6571   37.6352 C.3     661      M_A    0.0000
   6915 C          44.5839   72.1339   36.8017 C.2     661      M_A    0.0000
   6916 N          44.6713   72.6616   35.8183 N.3     661      M_A    0.0000
   6917 O          45.1282   71.3136   36.9625 O.2     661      M_A    0.0000
   6918 H          43.2488   72.3470   39.3003 H       661      M_A    0.0000
   6919 H          44.5484   71.8441   39.0142 H       661      M_A    0.0000
   6920 H          44.1382   73.4629   37.8271 H       661      M_A    0.0000
   6921 H          44.0255   73.1052   35.5569 H       661      M_A    0.0000
   6922 H          45.0997   72.2658   35.2373 H       661      M_A    0.0000
   6923 C          42.6416   72.8424   37.0897 C.3     662      M_A    0.0000
   6924 C          42.6992   73.4663   36.0114 C.3     662      M_A    0.0000
   6925 C          41.5666   73.5247   35.4771 C.2     662      M_A    0.0000
   6926 N          41.5047   74.1159   34.5285 N.3     662      M_A    0.0000
   6927 O          40.7465   73.0739   35.8226 O.2     662      M_A    0.0000
   6928 H          42.2324   72.0566   36.9991 H       662      M_A    0.0000
   6929 H          42.1590   73.3019   37.6827 H       662      M_A    0.0000
   6930 H          43.2358   73.0469   35.4353 H       662      M_A    0.0000
   6931 H          42.0435   74.7323   34.4192 H       662      M_A    0.0000
   6932 H          40.7462   74.2392   34.2332 H       662      M_A    0.0000
   6933 C          43.1707   74.6678   36.1682 C.3     663      M_A    0.0000
   6934 C          42.5128   75.5352   35.5601 C.3     663      M_A    0.0000
   6935 C          41.3185   75.1744   35.4372 C.2     663      M_A    0.0000
   6936 N          40.6329   75.9144   34.9520 N.3     663      M_A    0.0000
   6937 O          40.9564   74.2881   35.7173 O.2     663      M_A    0.0000
   6938 H          43.2342   74.8462   37.0384 H       663      M_A    0.0000
   6939 H          44.0081   74.6490   35.8613 H       663      M_A    0.0000
   6940 H          42.8342   75.6513   34.7360 H       663      M_A    0.0000
   6941 H          40.8150   76.7169   35.0225 H       663      M_A    0.0000
   6942 H          39.8328   75.7207   34.9630 H       663      M_A    0.0000
   6943 C          42.5612   76.6900   36.1557 C.3     664      M_A    0.0000
   6944 C          42.4741   77.6519   35.3668 C.3     664      M_A    0.0000
   6945 C          41.7054   77.3722   34.4167 C.2     664      M_A    0.0000
   6946 N          41.5179   78.1960   33.6824 N.3     664      M_A    0.0000
   6947 O          41.2799   76.4824   34.2673 O.2     664      M_A    0.0000
   6948 H          41.9351   76.7196   36.7884 H       664      M_A    0.0000
   6949 H          43.3429   76.7168   36.5845 H       664      M_A    0.0000
   6950 H          43.2704   77.8369   35.0096 H       664      M_A    0.0000
   6951 H          41.5744   78.9753   33.9501 H       664      M_A    0.0000
   6952 H          40.9371   78.0465   33.1184 H       664      M_A    0.0000
   6953 C          42.0605   78.7325   35.9598 C.3     665      M_A    0.0000
   6954 C          41.2091   79.3589   35.2980 C.3     665      M_A    0.0000
   6955 C          40.7808   78.6536   34.3542 C.2     665      M_A    0.0000
   6956 N          39.9683   79.1099   33.7341 N.3     665      M_A    0.0000
   6957 O          41.1226   77.7473   34.1157 O.2     665      M_A    0.0000
   6958 H          41.7641   78.5249   36.7735 H       665      M_A    0.0000
   6959 H          42.7832   79.2401   36.0855 H       665      M_A    0.0000
   6960 H          41.5707   80.0880   34.9328 H       665      M_A    0.0000
   6961 H          39.4713   79.6641   34.0919 H       665      M_A    0.0000
   6962 H          39.6179   78.6109   33.1810 H       665      M_A    0.0000
   6963 C          40.2133   79.7539   36.0349 C.3     666      M_A    0.0000
   6964 C          39.3844   80.4440   35.4089 C.3     666      M_A    0.0000
   6965 C          39.2381   80.0046   34.2439 C.2     666      M_A    0.0000
   6966 N          38.4693   80.5258   33.6191 N.3     666      M_A    0.0000
   6967 O          39.7624   79.2560   33.8441 O.2     666      M_A    0.0000
   6968 H          39.8349   79.0457   36.4200 H       666      M_A    0.0000
   6969 H          40.5688   80.2318   36.6990 H       666      M_A    0.0000
   6970 H          39.6706   81.2856   35.3340 H       666      M_A    0.0000
   6971 H          37.8349   80.8871   34.0052 H       666      M_A    0.0000
   6972 H          38.3014   80.1754   32.8933 H       666      M_A    0.0000
   6973 C          38.2316   80.4839   36.0087 C.3     667      M_A    0.0000
   6974 C          37.4423   81.3037   35.4985 C.3     667      M_A    0.0000
   6975 C          38.0385   82.3697   35.2160 C.2     667      M_A    0.0000
   6976 N          37.4240   83.1501   34.6998 N.3     667      M_A    0.0000
   6977 O          38.9914   82.5681   35.4344 O.2     667      M_A    0.0000
   6978 H          37.8877   79.6629   36.0372 H       667      M_A    0.0000
   6979 H          38.3989   80.7080   36.8558 H       667      M_A    0.0000
   6980 H          36.7942   81.5143   36.0743 H       667      M_A    0.0000
   6981 H          36.7872   82.8999   34.2372 H       667      M_A    0.0000
   6982 H          37.8379   83.8063   34.4244 H       667      M_A    0.0000
   6983 C          36.8679   80.8289   34.4331 C.3     668      M_A    0.0000
   6984 C          37.0378   81.5436   33.4254 C.3     668      M_A    0.0000
   6985 C          37.5486   82.6422   33.7476 C.2     668      M_A    0.0000
   6986 N          37.7924   83.3335   32.9015 N.3     668      M_A    0.0000
   6987 O          37.7268   82.9385   34.6833 O.2     668      M_A    0.0000
   6988 H          37.1439   79.9927   34.2996 H       668      M_A    0.0000
   6989 H          35.9983   80.7713   34.6234 H       668      M_A    0.0000
   6990 H          36.2564   81.7259   33.0356 H       668      M_A    0.0000
   6991 H          37.9625   83.0009   32.1649 H       668      M_A    0.0000
   6992 H          38.2186   84.0084   33.1031 H       668      M_A    0.0000
   6993 C          37.7830   80.9600   32.5341 C.3     669      M_A    0.0000
   6994 C          37.2749   80.9597   31.3952 C.2     669      M_A    0.0000
   6995 C          37.6376   81.9731   30.7525 C.2     669      M_A    0.0000
   6996 N          37.2772   82.0344   29.6944 N.3     669      M_A    0.0000
   6997 O          38.1930   82.7158   31.1200 O.2     669      M_A    0.0000
   6998 H          38.5916   81.3332   32.5386 H       669      M_A    0.0000
   6999 H          37.8994   80.1219   32.8165 H       669      M_A    0.0000
   7000 H          36.3850   80.9924   31.4494 H       669      M_A    0.0000
   7001 H          37.1219   81.3281   29.2955 H       669      M_A    0.0000
   7002 H          37.5965   82.6444   29.2430 H       669      M_A    0.0000
   7003 C          79.1065   72.7429   35.9727 C.2     670      M_A    0.0000
   7004 C          78.1522   71.4529   36.1094 C.3     670      M_A    0.0000
   7005 C          79.0092   70.1605   36.5743 C.2     670      M_A    0.0000
   7006 N          78.2511   68.9514   36.8038 N.3     670      M_A    0.0000
   7007 O          80.2887   70.1358   36.7219 O.2     670      M_A    0.0000
   7008 H          79.1598   73.3451   36.9510 H       670      M_A    0.0000
   7009 H          78.6826   73.4645   35.1812 H       670      M_A    0.0000
   7010 H          77.6779   71.1913   35.0927 H       670      M_A    0.0000
   7011 H          77.2314   69.0476   37.1012 H       670      M_A    0.0000
   7012 H          78.7912   68.1427   37.2333 H       670      M_A    0.0000
   7013 C          76.8933   71.7131   37.1893 C.3     671      M_A    0.0000
   7014 C          75.5571   70.8976   36.8113 C.3     671      M_A    0.0000
   7015 C          75.9071   69.3471   36.5045 C.2     671      M_A    0.0000
   7016 N          74.7775   68.4903   36.2225 N.3     671      M_A    0.0000
   7017 O          77.0950   68.8499   36.4704 O.2     671      M_A    0.0000
   7018 H          77.2548   71.4776   38.2554 H       671      M_A    0.0000
   7019 H          76.6823   72.8454   37.1711 H       671      M_A    0.0000
   7020 H          75.0778   71.3274   35.8560 H       671      M_A    0.0000
   7021 H          73.8342   68.7477   36.6483 H       671      M_A    0.0000
   7022 H          74.9927   67.4517   36.1510 H       671      M_A    0.0000
   7023 C          74.4016   70.9853   38.0262 C.3     672      M_A    0.0000
   7024 C          73.8487   69.5420   38.4784 C.3     672      M_A    0.0000
   7025 C          74.9414   68.7790   39.3975 C.2     672      M_A    0.0000
   7026 N          74.5332   67.4982   39.9290 N.3     672      M_A    0.0000
   7027 O          76.1256   69.2159   39.6549 O.2     672      M_A    0.0000
   7028 H          74.8292   71.5801   38.9127 H       672      M_A    0.0000
   7029 H          73.5397   71.6232   37.6052 H       672      M_A    0.0000
   7030 H          73.6612   68.8744   37.5585 H       672      M_A    0.0000
   7031 H          73.4925   67.3317   40.0923 H       672      M_A    0.0000
   7032 H          75.1955   67.0596   40.6355 H       672      M_A    0.0000
   7033 C          72.3945   69.6573   39.3096 C.3     673      M_A    0.0000
   7034 C          72.0653   68.3512   40.1923 C.3     673      M_A    0.0000
   7035 C          70.7840   68.6190   41.1448 C.2     673      M_A    0.0000
   7036 N          70.3418   67.4935   41.9367 N.3     673      M_A    0.0000
   7037 O          70.1692   69.7453   41.2579 O.2     673      M_A    0.0000
   7038 H          72.3964   70.6167   39.9437 H       673      M_A    0.0000
   7039 H          71.5784   69.8091   38.5109 H       673      M_A    0.0000
   7040 H          72.9500   68.0982   40.8854 H       673      M_A    0.0000
   7041 H          70.5303   66.5124   41.5632 H       673      M_A    0.0000
   7042 H          69.4264   67.6289   42.4601 H       673      M_A    0.0000
   7043 C          71.7848   66.9999   39.2361 C.3     674      M_A    0.0000
   7044 C          72.4211   65.6515   39.8447 C.3     674      M_A    0.0000
   7045 C          71.4547   65.0342   40.9873 C.2     674      M_A    0.0000
   7046 N          71.8814   63.7784   41.5622 N.3     674      M_A    0.0000
   7047 O          70.3761   65.5883   41.4221 O.2     674      M_A    0.0000
   7048 H          70.6548   66.8969   39.0491 H       674      M_A    0.0000
   7049 H          72.2545   67.2288   38.2095 H       674      M_A    0.0000
   7050 H          73.4336   65.8734   40.3474 H       674      M_A    0.0000
   7051 H          72.4763   63.1283   40.9614 H       674      M_A    0.0000
   7052 H          71.1852   63.3092   42.2142 H       674      M_A    0.0000
   7053 C          72.7012   64.4968   38.6585 C.3     675      M_A    0.0000
   7054 C          74.2603   64.1323   38.4864 C.3     675      M_A    0.0000
   7055 C          74.4768   63.1545   37.2145 C.2     675      M_A    0.0000
   7056 N          75.8476   62.8120   36.9094 N.3     675      M_A    0.0000
   7057 O          73.5312   62.6561   36.4955 O.2     675      M_A    0.0000
   7058 H          72.0628   63.5659   38.8786 H       675      M_A    0.0000
   7059 H          72.2887   64.9368   37.6771 H       675      M_A    0.0000
   7060 H          74.6479   63.5670   39.4123 H       675      M_A    0.0000
   7061 H          76.6105   63.5057   37.1821 H       675      M_A    0.0000
   7062 H          75.9992   62.2802   36.0015 H       675      M_A    0.0000
   7063 C          75.2117   65.5045   38.3113 C.3     676      M_A    0.0000
   7064 C          76.2250   65.4164   37.0628 C.3     676      M_A    0.0000
   7065 C          76.4788   63.8726   36.6467 C.2     676      M_A    0.0000
   7066 N          77.3171   63.6623   35.4880 N.3     676      M_A    0.0000
   7067 O          76.0167   62.8504   37.2800 O.2     676      M_A    0.0000
   7068 H          74.5324   66.4305   38.2505 H       676      M_A    0.0000
   7069 H          75.8045   65.6126   39.2931 H       676      M_A    0.0000
   7070 H          77.2507   65.8601   37.3424 H       676      M_A    0.0000
   7071 H          77.3428   64.4245   34.7425 H       676      M_A    0.0000
   7072 H          77.3769   62.6604   35.1375 H       676      M_A    0.0000
   7073 C          75.6618   66.2736   35.7336 C.3     677      M_A    0.0000
   7074 C          74.3346   65.6331   35.0842 C.3     677      M_A    0.0000
   7075 C          73.6251   64.6195   36.1282 C.2     677      M_A    0.0000
   7076 N          72.3790   64.0332   35.6888 N.3     677      M_A    0.0000
   7077 O          74.1004   64.2919   37.2798 O.2     677      M_A    0.0000
   7078 H          75.5083   67.3740   36.0305 H       677      M_A    0.0000
   7079 H          76.5180   66.2717   34.9629 H       677      M_A    0.0000
   7080 H          74.5997   65.0167   34.1477 H       677      M_A    0.0000
   7081 H          71.7847   64.5812   34.9932 H       677      M_A    0.0000
   7082 H          71.8489   63.4737   36.4210 H       677      M_A    0.0000
   7083 C          73.2369   66.8102   34.6062 C.3     678      M_A    0.0000
   7084 C          71.8258   66.2010   34.1257 C.3     678      M_A    0.0000
   7085 C          71.3136   65.0696   35.1642 C.2     678      M_A    0.0000
   7086 N          70.0174   64.4957   34.8816 N.3     678      M_A    0.0000
   7087 O          71.9803   64.6425   36.1804 O.2     678      M_A    0.0000
   7088 H          73.1092   67.5753   35.4553 H       678      M_A    0.0000
   7089 H          73.7351   67.3819   33.7391 H       678      M_A    0.0000
   7090 H          71.9351   65.6882   33.0999 H       678      M_A    0.0000
   7091 H          69.3082   65.0936   34.3550 H       678      M_A    0.0000
   7092 H          69.6246   63.8519   35.6308 H       678      M_A    0.0000
   7093 C          70.6508   67.3890   33.9613 C.3     679      M_A    0.0000
   7094 C          69.5528   67.0410   32.8359 C.3     679      M_A    0.0000
   7095 C          68.6920   65.7396   33.2672 C.2     679      M_A    0.0000
   7096 N          67.6210   65.3673   32.3706 N.3     679      M_A    0.0000
   7097 O          68.9119   65.0210   34.3135 O.2     679      M_A    0.0000
   7098 H          70.1690   67.5889   34.9862 H       679      M_A    0.0000
   7099 H          71.2089   68.3571   33.6813 H       679      M_A    0.0000
   7100 H          70.0652   66.7864   31.8361 H       679      M_A    0.0000
   7101 H          67.1666   66.1350   31.7861 H       679      M_A    0.0000
   7102 H          66.9757   64.5969   32.7174 H       679      M_A    0.0000
   7103 C          68.5180   68.3310   32.5462 C.3     680      M_A    0.0000
   7104 C          67.3011   67.9565   31.5602 C.3     680      M_A    0.0000
   7105 C          66.0759   68.9971   31.7513 C.2     680      M_A    0.0000
   7106 N          64.9475   68.8107   30.8672 N.3     680      M_A    0.0000
   7107 O          66.0332   69.9355   32.6328 O.2     680      M_A    0.0000
   7108 H          68.1456   68.7501   33.5504 H       680      M_A    0.0000
   7109 H          69.1632   69.1624   32.0777 H       680      M_A    0.0000
   7110 H          66.8906   66.9083   31.8047 H       680      M_A    0.0000
   7111 H          65.1257   68.3694   29.9128 H       680      M_A    0.0000
   7112 H          64.2036   69.5694   30.9023 H       680      M_A    0.0000
   7113 C          67.7787   67.9368   29.9507 C.3     681      M_A    0.0000
   7114 C          66.5834   67.5556   28.9411 C.3     681      M_A    0.0000
   7115 C          66.5535   68.5780   27.6863 C.2     681      M_A    0.0000
   7116 N          65.5670   68.2966   26.6679 N.3     681      M_A    0.0000
   7117 O          67.3125   69.6106   27.5555 O.2     681      M_A    0.0000
   7118 H          68.2600   68.9473   29.6866 H       681      M_A    0.0000
   7119 H          68.6226   67.1564   29.8748 H       681      M_A    0.0000
   7120 H          65.5637   67.6452   29.4695 H       681      M_A    0.0000
   7121 H          65.2567   67.2847   26.5361 H       681      M_A    0.0000
   7122 H          65.6335   68.8860   25.7857 H       681      M_A    0.0000
   7123 C          66.7122   65.9782   28.3805 C.3     682      M_A    0.0000
   7124 C          66.7059   65.8758   26.7734 C.3     682      M_A    0.0000
   7125 C          67.4414   67.1617   26.1205 C.2     682      M_A    0.0000
   7126 N          67.5657   67.1524   24.6804 N.3     682      M_A    0.0000
   7127 O          67.8852   68.1744   26.7815 O.2     682      M_A    0.0000
   7128 H          67.6460   65.4887   28.8398 H       682      M_A    0.0000
   7129 H          65.8111   65.4074   28.8153 H       682      M_A    0.0000
   7130 H          65.6258   65.8695   26.3729 H       682      M_A    0.0000
   7131 H          67.6097   66.2079   24.1869 H       682      M_A    0.0000
   7132 H          68.1613   67.9281   24.2637 H       682      M_A    0.0000
   7133 C          67.4424   64.4684   26.2297 C.3     683      M_A    0.0000
   7134 C          67.7544   64.4876   24.6499 C.3     683      M_A    0.0000
   7135 C          69.1997   63.8230   24.3494 C.2     683      M_A    0.0000
   7136 N          69.5653   63.7144   22.9551 N.3     683      M_A    0.0000
   7137 O          70.0304   63.4217   25.2485 O.2     683      M_A    0.0000
   7138 H          68.3884   64.2713   26.8533 H       683      M_A    0.0000
   7139 H          66.7168   63.6088   26.4776 H       683      M_A    0.0000
   7140 H          67.7968   65.5705   24.2593 H       683      M_A    0.0000
   7141 H          68.7820   63.6299   22.2363 H       683      M_A    0.0000
   7142 H          70.4506   63.1620   22.7520 H       683      M_A    0.0000
   7143 C          66.5716   63.6894   23.7652 C.3     684      M_A    0.0000
   7144 C          65.8393   64.6374   22.6889 C.3     684      M_A    0.0000
   7145 C          66.2277   64.1899   21.1824 C.2     684      M_A    0.0000
   7146 N          65.5742   64.9206   20.1200 N.3     684      M_A    0.0000
   7147 O          67.0769   63.2696   20.8800 O.2     684      M_A    0.0000
   7148 H          67.0311   62.7560   23.2751 H       684      M_A    0.0000
   7149 H          65.8055   63.2982   24.5314 H       684      M_A    0.0000
   7150 H          66.1834   65.7299   22.8122 H       684      M_A    0.0000
   7151 H          64.6152   65.3431   20.3181 H       684      M_A    0.0000
   7152 H          65.7272   64.5426   19.1382 H       684      M_A    0.0000
   7153 C          64.1702   64.6219   22.8693 C.3     685      M_A    0.0000
   7154 C          63.6670   65.4301   24.1681 C.3     685      M_A    0.0000
   7155 C          63.0436   66.8612   23.7389 C.2     685      M_A    0.0000
   7156 N          62.4883   67.6539   24.8126 N.3     685      M_A    0.0000
   7157 O          63.0357   67.3350   22.5410 O.2     685      M_A    0.0000
   7158 H          63.6817   65.0110   21.9036 H       685      M_A    0.0000
   7159 H          63.8656   63.5140   22.9521 H       685      M_A    0.0000
   7160 H          64.5497   65.6487   24.8754 H       685      M_A    0.0000
   7161 H          62.1066   67.1431   25.6675 H       685      M_A    0.0000
   7162 H          61.9639   68.5297   24.5159 H       685      M_A    0.0000
   7163 C          62.5317   64.5617   25.0489 C.3     686      M_A    0.0000
   7164 C          63.1953   63.5266   26.0889 C.3     686      M_A    0.0000
   7165 C          63.3034   64.1925   27.5605 C.2     686      M_A    0.0000
   7166 N          63.8177   63.3344   28.6039 N.3     686      M_A    0.0000
   7167 O          62.9945   65.4102   27.8457 O.2     686      M_A    0.0000
   7168 H          61.8149   65.2952   25.5692 H       686      M_A    0.0000
   7169 H          61.8938   63.9911   24.2779 H       686      M_A    0.0000
   7170 H          64.2674   63.2583   25.7639 H       686      M_A    0.0000
   7171 H          63.6706   62.2826   28.5063 H       686      M_A    0.0000
   7172 H          63.7661   63.7263   29.5908 H       686      M_A    0.0000
   7173 C          62.3332   62.0888   26.1824 C.3     687      M_A    0.0000
   7174 C          61.0422   62.1867   27.1399 C.3     687      M_A    0.0000
   7175 C          59.7155   62.5122   26.2712 C.2     687      M_A    0.0000
   7176 N          58.4735   62.5535   27.0097 N.3     687      M_A    0.0000
   7177 O          59.7011   62.7558   25.0064 O.2     687      M_A    0.0000
   7178 H          62.0571   61.7438   25.1206 H       687      M_A    0.0000
   7179 H          63.0668   61.2995   26.5894 H       687      M_A    0.0000
   7180 H          61.1648   63.0460   27.8974 H       687      M_A    0.0000
   7181 H          58.3971   61.9649   27.8958 H       687      M_A    0.0000
   7182 H          57.5906   62.6362   26.4234 H       687      M_A    0.0000
   7183 C          60.8063   60.7790   28.0240 C.3     688      M_A    0.0000
   7184 C          59.3193   60.6543   28.6296 C.3     688      M_A    0.0000
   7185 C          58.9088   59.0986   28.8087 C.2     688      M_A    0.0000
   7186 N          57.6194   58.8531   29.4143 N.3     688      M_A    0.0000
   7187 O          59.6257   58.0966   28.4324 O.2     688      M_A    0.0000
   7188 H          61.0838   59.8725   27.3729 H       688      M_A    0.0000
   7189 H          61.5790   60.8018   28.8780 H       688      M_A    0.0000
   7190 H          58.5498   61.1225   27.9115 H       688      M_A    0.0000
   7191 H          57.2339   59.5852   30.0874 H       688      M_A    0.0000
   7192 H          57.4067   57.8389   29.6514 H       688      M_A    0.0000
   7193 C          59.1702   61.4500   30.1005 C.3     689      M_A    0.0000
   7194 C          57.9225   62.4670   30.1456 C.3     689      M_A    0.0000
   7195 C          56.6340   61.7539   30.8179 C.2     689      M_A    0.0000
   7196 N          55.4661   62.5897   30.9829 N.3     689      M_A    0.0000
   7197 O          56.5770   60.5188   31.1794 O.2     689      M_A    0.0000
   7198 H          59.1241   60.6735   30.9476 H       689      M_A    0.0000
   7199 H          60.1549   62.0273   30.2555 H       689      M_A    0.0000
   7200 H          57.6147   62.7769   29.0796 H       689      M_A    0.0000
   7201 H          55.6132   63.6397   31.0992 H       689      M_A    0.0000
   7202 H          54.6682   62.1627   31.5406 H       689      M_A    0.0000
   7203 C          58.2886   63.8755   30.9830 C.3     690      M_A    0.0000
   7204 C          58.3486   65.1767   30.0361 C.3     690      M_A    0.0000
   7205 C          59.0339   66.4166   30.8194 C.2     690      M_A    0.0000
   7206 N          59.2127   67.6267   30.0492 N.3     690      M_A    0.0000
   7207 O          59.3944   66.4016   32.0560 O.2     690      M_A    0.0000
   7208 H          57.5421   64.0061   31.8480 H       690      M_A    0.0000
   7209 H          59.3146   63.6993   31.4761 H       690      M_A    0.0000
   7210 H          57.2864   65.5126   29.7428 H       690      M_A    0.0000
   7211 H          59.3287   67.5363   28.9928 H       690      M_A    0.0000
   7212 H          59.7785   68.3938   30.5198 H       690      M_A    0.0000
   7213 C          59.1838   64.8793   28.6103 C.3     691      M_A    0.0000
   7214 C          60.2184   63.6509   28.7278 C.3     691      M_A    0.0000
   7215 C          60.0427   62.6400   27.4757 C.2     691      M_A    0.0000
   7216 N          60.9679   61.5303   27.4274 N.3     691      M_A    0.0000
   7217 O          59.1404   62.7441   26.5622 O.2     691      M_A    0.0000
   7218 H          58.4301   64.7275   27.7550 H       691      M_A    0.0000
   7219 H          59.7515   65.8502   28.3612 H       691      M_A    0.0000
   7220 H          60.0133   63.0395   29.6824 H       691      M_A    0.0000
   7221 H          61.9264   61.6566   27.8778 H       691      M_A    0.0000
   7222 H          60.9390   60.9438   26.5413 H       691      M_A    0.0000
   7223 C          61.8112   64.1754   28.8101 C.3     692      M_A    0.0000
   7224 C          62.5073   64.3125   27.3644 C.3     692      M_A    0.0000
   7225 C          61.5813   65.1933   26.3707 C.2     692      M_A    0.0000
   7226 N          62.1325   65.4510   25.0594 N.3     692      M_A    0.0000
   7227 O          60.4085   65.6425   26.6571 O.2     692      M_A    0.0000
   7228 H          61.8554   65.1589   29.4046 H       692      M_A    0.0000
   7229 H          62.3740   63.3972   29.4462 H       692      M_A    0.0000
   7230 H          62.6311   63.2768   26.8755 H       692      M_A    0.0000
   7231 H          63.1938   65.4753   24.9575 H       692      M_A    0.0000
   7232 H          61.5869   66.1354   24.4560 H       692      M_A    0.0000
   7233 C          64.0370   64.9973   27.4649 C.3     693      M_A    0.0000
   7234 C          64.0783   66.3208   28.3814 C.2     693      M_A    0.0000
   7235 C          64.4236   65.9372   29.9158 C.2     693      M_A    0.0000
   7236 N          64.5617   67.0504   30.8275 N.3     693      M_A    0.0000
   7237 O          64.5526   64.7376   30.3671 O.2     693      M_A    0.0000
   7238 H          64.7850   64.2010   27.8241 H       693      M_A    0.0000
   7239 H          64.3457   65.2555   26.3856 H       693      M_A    0.0000
   7240 H          63.0495   66.8390   28.3899 H       693      M_A    0.0000
   7241 H          64.8789   67.9879   30.4300 H       693      M_A    0.0000
   7242 H          64.9158   66.8089   31.8003 H       693      M_A    0.0000
   7243 C          86.4284   88.0401   33.6000 C.2     694      M_A    0.0000
   7244 C          86.4509   86.5063   33.5319 C.3     694      M_A    0.0000
   7245 C          87.6264   85.9458   34.3605 C.2     694      M_A    0.0000
   7246 N          87.7093   84.5720   34.4323 N.3     694      M_A    0.0000
   7247 O          88.4813   86.6263   34.9214 O.2     694      M_A    0.0000
   7248 H          86.1092   88.4030   34.5842 H       694      M_A    0.0000
   7249 H          85.6983   88.4373   32.8821 H       694      M_A    0.0000
   7250 H          86.6005   86.1685   32.4976 H       694      M_A    0.0000
   7251 H          86.8495   84.0359   34.3458 H       694      M_A    0.0000
   7252 H          88.4024   84.2061   35.0749 H       694      M_A    0.0000
   7253 C          85.0773   85.8629   34.0435 C.3     695      M_A    0.0000
   7254 C          84.6262   86.4090   35.4058 C.3     695      M_A    0.0000
   7255 C          84.4691   87.9434   35.3478 C.2     695      M_A    0.0000
   7256 N          83.9996   88.5428   36.4966 N.3     695      M_A    0.0000
   7257 O          84.7518   88.6450   34.3802 O.2     695      M_A    0.0000
   7258 H          84.3084   85.9947   33.2730 H       695      M_A    0.0000
   7259 H          85.2519   84.7807   34.1117 H       695      M_A    0.0000
   7260 H          85.3797   86.1947   36.1757 H       695      M_A    0.0000
   7261 H          83.4034   87.9955   37.1122 H       695      M_A    0.0000
   7262 H          83.7784   89.5289   36.4194 H       695      M_A    0.0000
   7263 C          83.2532   85.7458   35.8932 C.3     696      M_A    0.0000
   7264 C          82.0449   86.6810   35.7420 C.3     696      M_A    0.0000
   7265 C          81.4732   86.5982   34.3107 C.2     696      M_A    0.0000
   7266 N          80.3390   87.3443   34.0730 N.3     696      M_A    0.0000
   7267 O          81.9652   85.9491   33.3914 O.2     696      M_A    0.0000
   7268 H          83.1053   84.7951   35.3672 H       696      M_A    0.0000
   7269 H          83.3966   85.4851   36.9504 H       696      M_A    0.0000
   7270 H          82.3428   87.7253   35.9062 H       696      M_A    0.0000
   7271 H          79.7186   87.5340   34.8560 H       696      M_A    0.0000
   7272 H          79.8936   87.1936   33.1751 H       696      M_A    0.0000
   7273 C          80.8922   86.3479   36.8017 C.3     697      M_A    0.0000
   7274 C          79.6856   85.6342   36.1756 C.3     697      M_A    0.0000
   7275 C          78.6548   85.2611   37.2621 C.2     697      M_A    0.0000
   7276 N          77.4919   84.6749   36.8108 N.3     697      M_A    0.0000
   7277 O          78.8119   85.4253   38.4691 O.2     697      M_A    0.0000
   7278 H          81.3212   85.7768   37.6336 H       697      M_A    0.0000
   7279 H          80.5797   87.3107   37.2279 H       697      M_A    0.0000
   7280 H          79.9981   84.6961   35.6973 H       697      M_A    0.0000
   7281 H          77.1776   84.8987   35.8699 H       697      M_A    0.0000
   7282 H          76.7662   84.5449   37.5062 H       697      M_A    0.0000
   7283 C          78.9800   86.5252   35.0483 C.3     698      M_A    0.0000
   7284 C          77.6230   85.9651   34.5987 C.3     698      M_A    0.0000
   7285 C          76.6249   87.1128   34.3359 C.2     698      M_A    0.0000
   7286 N          75.3882   86.7356   33.8585 N.3     698      M_A    0.0000
   7287 O          76.8480   88.3026   34.5434 O.2     698      M_A    0.0000
   7288 H          78.9003   87.5595   35.4036 H       698      M_A    0.0000
   7289 H          79.6754   86.5523   34.1986 H       698      M_A    0.0000
   7290 H          77.1855   85.3364   35.3860 H       698      M_A    0.0000
   7291 H          75.3259   85.8765   33.3180 H       698      M_A    0.0000
   7292 H          74.7792   87.4921   33.5685 H       698      M_A    0.0000
   7293 C          77.7538   85.0555   33.2880 C.3     699      M_A    0.0000
   7294 C          76.4078   84.7988   32.5954 C.3     699      M_A    0.0000
   7295 C          76.5786   84.8097   31.0614 C.2     699      M_A    0.0000
   7296 N          75.4473   84.5207   30.3291 N.3     699      M_A    0.0000
   7297 O          77.6214   85.0767   30.4699 O.2     699      M_A    0.0000
   7298 H          78.4865   85.5061   32.6080 H       699      M_A    0.0000
   7299 H          78.1944   84.1047   33.6170 H       699      M_A    0.0000
   7300 H          75.6899   85.5928   32.8417 H       699      M_A    0.0000
   7301 H          74.7400   83.9276   30.7558 H       699      M_A    0.0000
   7302 H          75.5865   84.4050   29.3319 H       699      M_A    0.0000
   7303 C          75.7520   83.4123   33.0537 C.3     700      M_A    0.0000
   7304 C          74.2267   83.3805   32.8809 C.3     700      M_A    0.0000
   7305 C          73.9993   84.0770   31.4376 C.2     700      M_A    0.0000
   7306 N          72.6369   84.4416   31.1219 N.3     700      M_A    0.0000
   7307 O          74.9318   84.3429   30.5898 O.2     700      M_A    0.0000
   7308 H          76.2429   82.5882   32.5224 H       700      M_A    0.0000
   7309 H          76.0129   83.2846   34.1128 H       700      M_A    0.0000
   7310 H          73.9250   84.1560   33.6774 H       700      M_A    0.0000
   7311 H          71.8503   83.8774   31.5692 H       700      M_A    0.0000
   7312 H          72.4676   84.7767   30.1275 H       700      M_A    0.0000
   7313 C          73.1871   82.0728   33.0461 C.3     701      M_A    0.0000
   7314 C          72.5051   81.9874   34.5022 C.3     701      M_A    0.0000
   7315 C          71.0469   82.6897   34.4872 C.2     701      M_A    0.0000
   7316 N          70.2989   82.6144   35.7216 N.3     701      M_A    0.0000
   7317 O          70.5381   83.3157   33.4831 O.2     701      M_A    0.0000
   7318 H          72.4040   82.1037   32.2047 H       701      M_A    0.0000
   7319 H          73.8211   81.1311   32.8521 H       701      M_A    0.0000
   7320 H          73.1401   82.5521   35.2797 H       701      M_A    0.0000
   7321 H          70.4842   81.7889   36.3706 H       701      M_A    0.0000
   7322 H          69.2942   82.9579   35.6738 H       701      M_A    0.0000
   7323 C          72.3625   80.4029   35.0381 C.3     702      M_A    0.0000
   7324 C          71.0656   79.6511   34.4503 C.3     702      M_A    0.0000
   7325 C          70.6053   80.3243   33.0521 C.2     702      M_A    0.0000
   7326 N          69.4911   79.6904   32.3847 N.3     702      M_A    0.0000
   7327 O          71.1363   81.3734   32.5266 O.2     702      M_A    0.0000
   7328 H          73.3339   79.8348   34.8016 H       702      M_A    0.0000
   7329 H          72.3002   80.4560   36.1869 H       702      M_A    0.0000
   7330 H          70.1774   79.7495   35.1769 H       702      M_A    0.0000
   7331 H          69.3348   78.6484   32.5494 H       702      M_A    0.0000
   7332 H          69.2736   80.0492   31.4081 H       702      M_A    0.0000
   7333 C          71.3386   78.0103   34.2234 C.3     703      M_A    0.0000
   7334 C          71.2846   77.1651   35.5927 C.3     703      M_A    0.0000
   7335 C          69.8123   76.5280   35.8078 C.2     703      M_A    0.0000
   7336 N          69.6554   75.6829   36.9698 N.3     703      M_A    0.0000
   7337 O          68.7957   76.7419   35.0465 O.2     703      M_A    0.0000
   7338 H          70.5990   77.6088   33.4398 H       703      M_A    0.0000
   7339 H          72.3829   77.9208   33.7459 H       703      M_A    0.0000
   7340 H          71.4887   77.8479   36.4976 H       703      M_A    0.0000
   7341 H          70.5152   75.1692   37.3360 H       703      M_A    0.0000
   7342 H          68.7318   75.1617   37.0398 H       703      M_A    0.0000
   7343 C          72.4373   75.9451   35.6248 C.3     704      M_A    0.0000
   7344 C          73.9440   76.5016   35.7375 C.3     704      M_A    0.0000
   7345 C          74.2559   76.9910   37.2485 C.2     704      M_A    0.0000
   7346 N          75.6049   77.4463   37.4971 N.3     704      M_A    0.0000
   7347 O          73.3964   77.0243   38.2071 O.2     704      M_A    0.0000
   7348 H          72.1854   75.2091   36.4716 H       704      M_A    0.0000
   7349 H          72.3078   75.3540   34.6448 H       704      M_A    0.0000
   7350 H          74.0891   77.4166   35.0532 H       704      M_A    0.0000
   7351 H          76.3887   77.0435   36.8968 H       704      M_A    0.0000
   7352 H          75.8455   77.6426   38.5137 H       704      M_A    0.0000
   7353 C          75.0756   75.3523   35.2719 C.3     705      M_A    0.0000
   7354 C          76.3133   75.9787   34.4544 C.3     705      M_A    0.0000
   7355 C          77.5544   76.2807   35.4486 C.2     705      M_A    0.0000
   7356 N          78.7570   76.7794   34.8210 N.3     705      M_A    0.0000
   7357 O          77.5294   76.1345   36.7280 O.2     705      M_A    0.0000
   7358 H          75.4234   74.7670   36.1986 H       705      M_A    0.0000
   7359 H          74.5119   74.5939   34.6135 H       705      M_A    0.0000
   7360 H          76.0153   76.9837   33.9771 H       705      M_A    0.0000
   7361 H          78.9429   76.5080   33.8067 H       705      M_A    0.0000
   7362 H          79.6098   76.8529   35.4513 H       705      M_A    0.0000
   7363 C          76.8194   74.9718   33.2102 C.3     706      M_A    0.0000
   7364 C          76.3587   75.4843   31.7550 C.3     706      M_A    0.0000
   7365 C          77.5857   75.3842   30.7041 C.2     706      M_A    0.0000
   7366 N          77.2776   75.7482   29.3398 N.3     706      M_A    0.0000
   7367 O          78.7892   75.0368   31.0037 O.2     706      M_A    0.0000
   7368 H          77.9588   74.8318   33.2768 H       706      M_A    0.0000
   7369 H          76.3617   73.9374   33.4268 H       706      M_A    0.0000
   7370 H          76.0443   76.5916   31.7972 H       706      M_A    0.0000
   7371 H          76.2753   75.6175   29.0000 H       706      M_A    0.0000
   7372 H          78.0433   75.5582   28.6275 H       706      M_A    0.0000
   7373 C          75.0437   74.6196   31.1708 C.3     707      M_A    0.0000
   7374 C          75.4448   73.5470   30.0389 C.3     707      M_A    0.0000
   7375 C          76.9886   73.0918   30.2111 C.2     707      M_A    0.0000
   7376 N          77.4505   72.0729   29.2960 N.3     707      M_A    0.0000
   7377 O          77.8135   73.5848   31.0685 O.2     707      M_A    0.0000
   7378 H          74.4915   74.1296   32.0523 H       707      M_A    0.0000
   7379 H          74.3145   75.3976   30.7356 H       707      M_A    0.0000
   7380 H          75.3485   74.0117   28.9894 H       707      M_A    0.0000
   7381 H          76.7339   71.3848   28.9084 H       707      M_A    0.0000
   7382 H          78.4190   71.6814   29.4922 H       707      M_A    0.0000
   7383 C          74.4509   72.1946   30.0733 C.3     708      M_A    0.0000
   7384 C          75.2699   70.8088   30.1077 C.3     708      M_A    0.0000
   7385 C          75.8443   70.5268   31.5945 C.2     708      M_A    0.0000
   7386 N          76.5391   69.2721   31.7737 N.3     708      M_A    0.0000
   7387 O          75.7475   71.3375   32.5906 O.2     708      M_A    0.0000
   7388 H          73.7197   72.2850   30.9561 H       708      M_A    0.0000
   7389 H          73.8039   72.2464   29.1218 H       708      M_A    0.0000
   7390 H          76.1789   70.8588   29.4022 H       708      M_A    0.0000
   7391 H          76.2679   68.4545   31.1451 H       708      M_A    0.0000
   7392 H          76.8002   69.0283   32.7747 H       708      M_A    0.0000
   7393 C          74.3298   69.5099   29.6106 C.3     709      M_A    0.0000
   7394 C          75.0849   68.0943   29.7462 C.3     709      M_A    0.0000
   7395 C          74.0520   66.9447   30.2273 C.2     709      M_A    0.0000
   7396 N          74.5944   65.6081   30.3168 N.3     709      M_A    0.0000
   7397 O          72.8216   67.1449   30.5513 O.2     709      M_A    0.0000
   7398 H          73.3331   69.5232   30.1838 H       709      M_A    0.0000
   7399 H          74.0620   69.7096   28.5084 H       709      M_A    0.0000
   7400 H          75.9143   68.1533   30.5433 H       709      M_A    0.0000
   7401 H          75.4120   65.3551   29.6806 H       709      M_A    0.0000
   7402 H          73.8889   64.8356   30.5044 H       709      M_A    0.0000
   7403 C          75.8149   67.6303   28.3075 C.3     710      M_A    0.0000
   7404 C          75.7841   66.0385   28.0675 C.3     710      M_A    0.0000
   7405 C          75.5369   65.7059   26.5028 C.2     710      M_A    0.0000
   7406 N          75.5609   64.3057   26.1452 N.3     710      M_A    0.0000
   7407 O          75.3006   66.5823   25.5890 O.2     710      M_A    0.0000
   7408 H          75.3341   68.2067   27.4364 H       710      M_A    0.0000
   7409 H          76.9045   67.9990   28.3659 H       710      M_A    0.0000
   7410 H          74.9159   65.5582   28.6524 H       710      M_A    0.0000
   7411 H          76.1485   63.6457   26.7421 H       710      M_A    0.0000
   7412 H          75.5300   64.0950   25.1038 H       710      M_A    0.0000
   7413 C          77.1983   65.2967   28.5852 C.3     711      M_A    0.0000
   7414 C          77.0858   63.6916   28.6426 C.3     711      M_A    0.0000
   7415 C          77.6604   63.0340   27.2797 C.2     711      M_A    0.0000
   7416 N          77.6818   61.5895   27.2377 N.3     711      M_A    0.0000
   7417 O          78.0624   63.6970   26.2512 O.2     711      M_A    0.0000
   7418 H          78.0717   65.6440   27.9229 H       711      M_A    0.0000
   7419 H          77.4146   65.7144   29.6365 H       711      M_A    0.0000
   7420 H          75.9845   63.3664   28.7320 H       711      M_A    0.0000
   7421 H          77.7706   61.0623   28.1603 H       711      M_A    0.0000
   7422 H          78.1776   61.1597   26.4016 H       711      M_A    0.0000
   7423 C          77.8987   63.0508   29.9642 C.3     712      M_A    0.0000
   7424 C          77.2954   61.6408   30.4547 C.3     712      M_A    0.0000
   7425 C          78.1220   60.4124   29.8006 C.2     712      M_A    0.0000
   7426 N          77.7221   59.0891   30.2222 N.3     712      M_A    0.0000
   7427 O          79.0670   60.5354   28.9342 O.2     712      M_A    0.0000
   7428 H          79.0199   62.9780   29.7196 H       712      M_A    0.0000
   7429 H          77.8100   63.8316   30.8062 H       712      M_A    0.0000
   7430 H          76.2017   61.5278   30.1117 H       712      M_A    0.0000
   7431 H          77.2871   58.9811   31.1898 H       712      M_A    0.0000
   7432 H          78.3464   58.2929   29.8965 H       712      M_A    0.0000
   7433 C          77.3054   61.5001   32.1275 C.3     713      M_A    0.0000
   7434 C          78.5445   60.6339   32.6816 C.3     713      M_A    0.0000
   7435 C          79.8022   60.7306   31.6674 C.2     713      M_A    0.0000
   7436 N          81.0061   60.0522   32.0907 N.3     713      M_A    0.0000
   7437 O          79.7895   61.3332   30.5291 O.2     713      M_A    0.0000
   7438 H          77.2700   62.5497   32.5955 H       713      M_A    0.0000
   7439 H          76.3114   60.9937   32.4138 H       713      M_A    0.0000
   7440 H          78.2588   59.5205   32.7545 H       713      M_A    0.0000
   7441 H          81.1754   59.9372   33.1372 H       713      M_A    0.0000
   7442 H          81.8673   60.2242   31.4919 H       713      M_A    0.0000
   7443 C          79.0182   61.1237   34.2158 C.3     714      M_A    0.0000
   7444 C          80.5968   61.4210   34.3253 C.3     714      M_A    0.0000
   7445 C          81.2629   61.4962   32.8520 C.2     714      M_A    0.0000
   7446 N          82.6683   61.8311   32.8125 N.3     714      M_A    0.0000
   7447 O          80.6442   61.2572   31.7478 O.2     714      M_A    0.0000
   7448 H          78.3860   62.0294   34.5357 H       714      M_A    0.0000
   7449 H          78.7278   60.2686   34.9307 H       714      M_A    0.0000
   7450 H          81.1301   60.5705   34.8901 H       714      M_A    0.0000
   7451 H          83.0651   62.4232   33.6057 H       714      M_A    0.0000
   7452 H          83.0732   62.0089   31.8460 H       714      M_A    0.0000
   7453 C          80.9129   62.8425   35.1603 C.3     715      M_A    0.0000
   7454 C          82.4366   63.3402   35.0074 C.3     715      M_A    0.0000
   7455 C          82.5603   64.4288   33.8160 C.2     715      M_A    0.0000
   7456 N          83.8706   65.0085   33.6263 N.3     715      M_A    0.0000
   7457 O          81.6000   64.7804   33.0330 O.2     715      M_A    0.0000
   7458 H          80.1614   63.6487   34.8325 H       715      M_A    0.0000
   7459 H          80.6787   62.6248   36.2668 H       715      M_A    0.0000
   7460 H          83.1235   62.4590   34.7276 H       715      M_A    0.0000
   7461 H          84.5193   65.0689   34.4705 H       715      M_A    0.0000
   7462 H          83.9228   65.8146   32.9354 H       715      M_A    0.0000
   7463 C          83.0305   63.9956   36.4342 C.3     716      M_A    0.0000
   7464 C          84.2122   65.0630   36.1958 C.3     716      M_A    0.0000
   7465 C          84.0890   65.7257   34.7243 C.2     716      M_A    0.0000
   7466 N          85.0531   66.7572   34.4154 N.3     716      M_A    0.0000
   7467 O          83.2289   65.3831   33.8288 O.2     716      M_A    0.0000
   7468 H          82.1593   64.4444   37.0356 H       716      M_A    0.0000
   7469 H          83.4202   63.1092   37.0579 H       716      M_A    0.0000
   7470 H          85.2401   64.5456   36.2443 H       716      M_A    0.0000
   7471 H          85.4536   67.3271   35.2227 H       716      M_A    0.0000
   7472 H          84.8919   67.2816   33.5050 H       716      M_A    0.0000
   7473 C          84.2124   66.2719   37.3606 C.3     717      M_A    0.0000
   7474 C          84.8659   67.6491   36.8423 C.3     717      M_A    0.0000
   7475 C          83.9639   68.2963   35.6643 C.2     717      M_A    0.0000
   7476 N          84.4076   69.5773   35.1631 N.3     717      M_A    0.0000
   7477 O          82.9228   67.7457   35.1430 O.2     717      M_A    0.0000
   7478 H          83.1407   66.4229   37.7490 H       717      M_A    0.0000
   7479 H          84.8154   65.8604   38.2514 H       717      M_A    0.0000
   7480 H          85.9107   67.4582   36.3965 H       717      M_A    0.0000
   7481 H          84.9544   70.2119   35.8230 H       717      M_A    0.0000
   7482 H          83.7467   70.0617   34.4861 H       717      M_A    0.0000
   7483 C          85.0548   68.7624   38.0843 C.3     718      M_A    0.0000
   7484 C          84.1711   70.0929   37.8807 C.3     718      M_A    0.0000
   7485 C          84.0923   70.9375   39.2592 C.2     718      M_A    0.0000
   7486 N          83.3847   72.1957   39.1874 N.3     718      M_A    0.0000
   7487 O          84.5826   70.5577   40.3881 O.2     718      M_A    0.0000
   7488 H          84.8348   68.2488   39.0893 H       718      M_A    0.0000
   7489 H          86.1742   69.0326   38.1070 H       718      M_A    0.0000
   7490 H          83.0895   69.8198   37.5938 H       718      M_A    0.0000
   7491 H          83.3604   72.7045   38.2505 H       718      M_A    0.0000
   7492 H          83.4450   72.8089   40.0534 H       718      M_A    0.0000
   7493 C          84.7756   71.0683   36.6554 C.3     719      M_A    0.0000
   7494 C          85.4055   72.4472   37.1978 C.3     719      M_A    0.0000
   7495 C          85.0542   72.6534   38.7643 C.2     719      M_A    0.0000
   7496 N          85.6270   73.8239   39.3894 N.3     719      M_A    0.0000
   7497 O          84.2974   71.8780   39.4605 O.2     719      M_A    0.0000
   7498 H          85.5302   70.4663   36.0305 H       719      M_A    0.0000
   7499 H          83.8899   71.2890   35.9531 H       719      M_A    0.0000
   7500 H          84.9573   73.3458   36.6337 H       719      M_A    0.0000
   7501 H          86.5412   74.2062   38.9953 H       719      M_A    0.0000
   7502 H          85.5061   73.8897   40.4434 H       719      M_A    0.0000
   7503 C          87.0690   72.5076   36.9802 C.3     720      M_A    0.0000
   7504 C          87.5552   73.8193   36.1830 C.2     720      M_A    0.0000
   7505 C          87.8994   75.0159   37.2172 C.2     720      M_A    0.0000
   7506 N          88.4183   76.2288   36.6268 N.3     720      M_A    0.0000
   7507 O          87.7200   74.9661   38.4917 O.2     720      M_A    0.0000
   7508 H          87.5878   72.4070   38.0014 H       720      M_A    0.0000
   7509 H          87.3508   71.5602   36.3890 H       720      M_A    0.0000
   7510 H          86.7187   74.2054   35.4917 H       720      M_A    0.0000
   7511 H          88.9544   76.1498   35.7084 H       720      M_A    0.0000
   7512 H          88.7662   76.9631   37.3120 H       720      M_A    0.0000
   7513 C          73.1518   82.1104   38.3332 C.2     721      M_A    0.0000
   7514 C          73.9338   80.8317   38.6662 C.3     721      M_A    0.0000
   7515 C          73.8755   80.5416   40.1811 C.2     721      M_A    0.0000
   7516 N          74.4856   79.3766   40.5933 N.3     721      M_A    0.0000
   7517 O          73.3575   81.2742   41.0198 O.2     721      M_A    0.0000
   7518 H          72.3459   82.2983   39.0526 H       721      M_A    0.0000
   7519 H          72.6633   82.0080   37.3549 H       721      M_A    0.0000
   7520 H          74.9941   80.9493   38.4049 H       721      M_A    0.0000
   7521 H          74.5418   78.6063   39.9319 H       721      M_A    0.0000
   7522 H          74.3402   79.1236   41.5640 H       721      M_A    0.0000
   7523 C          73.3864   79.5652   37.8545 C.3     722      M_A    0.0000
   7524 C          72.0903   78.9876   38.4410 C.3     722      M_A    0.0000
   7525 C          71.6034   77.7889   37.5992 C.2     722      M_A    0.0000
   7526 N          70.4814   77.1412   38.0694 N.3     722      M_A    0.0000
   7527 O          72.1222   77.4038   36.5547 O.2     722      M_A    0.0000
   7528 H          73.2747   79.8350   36.7977 H       722      M_A    0.0000
   7529 H          74.1835   78.8105   37.8892 H       722      M_A    0.0000
   7530 H          71.2891   79.7386   38.4193 H       722      M_A    0.0000
   7531 H          70.2994   77.1649   39.0696 H       722      M_A    0.0000
   7532 H          70.2357   76.2828   37.5898 H       722      M_A    0.0000
   7533 C          72.2710   78.5357   39.9660 C.3     723      M_A    0.0000
   7534 C          71.0493   77.7909   40.5230 C.3     723      M_A    0.0000
   7535 C          71.0503   76.3216   40.0503 C.2     723      M_A    0.0000
   7536 N          70.0352   75.5311   40.5445 N.3     723      M_A    0.0000
   7537 O          71.8593   75.8341   39.2652 O.2     723      M_A    0.0000
   7538 H          73.1903   77.9455   40.0607 H       723      M_A    0.0000
   7539 H          72.4442   79.4557   40.5403 H       723      M_A    0.0000
   7540 H          70.1198   78.2441   40.1527 H       723      M_A    0.0000
   7541 H          69.6393   75.7717   41.4497 H       723      M_A    0.0000
   7542 H          70.1067   74.5418   40.3357 H       723      M_A    0.0000
   7543 C          70.9935   77.8415   42.1220 C.3     724      M_A    0.0000
   7544 C          70.3705   76.5833   42.7436 C.3     724      M_A    0.0000
   7545 C          70.2393   76.7443   44.2730 C.2     724      M_A    0.0000
   7546 N          69.6272   75.7027   44.9362 N.3     724      M_A    0.0000
   7547 O          70.6564   77.7017   44.9196 O.2     724      M_A    0.0000
   7548 H          71.9994   78.0374   42.5119 H       724      M_A    0.0000
   7549 H          70.3938   78.7245   42.3805 H       724      M_A    0.0000
   7550 H          71.0120   75.7090   42.5691 H       724      M_A    0.0000
   7551 H          68.9481   75.1440   44.4257 H       724      M_A    0.0000
   7552 H          69.4290   75.8618   45.9174 H       724      M_A    0.0000
   7553 C          68.9375   76.2492   42.1131 C.3     725      M_A    0.0000
   7554 C          68.5812   74.7574   42.1827 C.3     725      M_A    0.0000
   7555 C          67.7227   74.4644   43.4315 C.2     725      M_A    0.0000
   7556 N          67.2812   73.1657   43.5656 N.3     725      M_A    0.0000
   7557 O          67.4386   75.2850   44.3001 O.2     725      M_A    0.0000
   7558 H          68.1770   76.8761   42.5938 H       725      M_A    0.0000
   7559 H          68.9790   76.5772   41.0657 H       725      M_A    0.0000
   7560 H          69.4904   74.1476   42.2708 H       725      M_A    0.0000
   7561 H          67.1502   72.6156   42.7205 H       725      M_A    0.0000
   7562 H          66.6176   73.0018   44.3140 H       725      M_A    0.0000
   7563 C          67.8082   74.2634   40.8708 C.3     726      M_A    0.0000
   7564 C          67.2974   72.8195   40.9798 C.3     726      M_A    0.0000
   7565 C          66.4568   72.6389   42.2617 C.2     726      M_A    0.0000
   7566 N          65.8842   71.3972   42.4344 N.3     726      M_A    0.0000
   7567 O          66.2924   73.4981   43.1238 O.2     726      M_A    0.0000
   7568 H          67.0006   74.9686   40.6410 H       726      M_A    0.0000
   7569 H          68.5247   74.3469   40.0426 H       726      M_A    0.0000
   7570 H          68.1389   72.1171   41.0489 H       726      M_A    0.0000
   7571 H          65.6657   70.8518   41.6044 H       726      M_A    0.0000
   7572 H          65.2335   71.3166   43.2073 H       726      M_A    0.0000
   7573 C          66.4307   72.3918   39.7037 C.3     727      M_A    0.0000
   7574 C          66.9757   71.1432   38.9957 C.3     727      M_A    0.0000
   7575 C          68.4294   70.8649   39.4335 C.2     727      M_A    0.0000
   7576 N          69.0048   69.7248   38.9154 N.3     727      M_A    0.0000
   7577 O          69.0939   71.5872   40.1719 O.2     727      M_A    0.0000
   7578 H          65.3831   72.2696   40.0037 H       727      M_A    0.0000
   7579 H          66.4487   73.2501   39.0187 H       727      M_A    0.0000
   7580 H          66.9939   71.2939   37.9079 H       727      M_A    0.0000
   7581 H          68.3935   68.9509   38.6675 H       727      M_A    0.0000
   7582 H          69.9097   69.4757   39.2981 H       727      M_A    0.0000
   7583 C          66.0727   69.8517   39.2771 C.3     728      M_A    0.0000
   7584 C          66.5989   68.9882   40.4325 C.3     728      M_A    0.0000
   7585 C          67.0148   69.8760   41.6247 C.2     728      M_A    0.0000
   7586 N          67.4401   69.2068   42.7520 N.3     728      M_A    0.0000
   7587 O          67.0148   71.1042   41.6230 O.2     728      M_A    0.0000
   7588 H          65.0346   70.1658   39.4386 H       728      M_A    0.0000
   7589 H          66.0691   69.2706   38.3451 H       728      M_A    0.0000
   7590 H          67.4938   68.4323   40.1217 H       728      M_A    0.0000
   7591 H          67.0761   68.2722   42.9192 H       728      M_A    0.0000
   7592 H          67.5932   69.7812   43.5730 H       728      M_A    0.0000
   7593 C          65.5189   67.9100   40.9158 C.3     729      M_A    0.0000
   7594 C          65.9540   66.4612   40.6529 C.3     729      M_A    0.0000
   7595 C          65.5501   65.5529   41.8337 C.2     729      M_A    0.0000
   7596 N          65.8273   64.2114   41.6816 N.3     729      M_A    0.0000
   7597 O          65.0362   65.9422   42.8791 O.2     729      M_A    0.0000
   7598 H          65.2846   68.0832   41.9729 H       729      M_A    0.0000
   7599 H          64.5958   68.1312   40.3633 H       729      M_A    0.0000
   7600 H          67.0467   66.3975   40.5611 H       729      M_A    0.0000
   7601 H          65.8559   63.8330   40.7381 H       729      M_A    0.0000
   7602 H          65.4515   63.6006   42.3978 H       729      M_A    0.0000
   7603 C          65.3330   65.8854   39.2945 C.3     730      M_A    0.0000
   7604 C          64.1263   64.9647   39.5260 C.3     730      M_A    0.0000
   7605 C          63.5930   65.1244   40.9656 C.2     730      M_A    0.0000
   7606 N          62.4632   64.3967   41.2717 N.3     730      M_A    0.0000
   7607 O          64.1112   65.8182   41.8366 O.2     730      M_A    0.0000
   7608 H          65.0905   66.7204   38.6265 H       730      M_A    0.0000
   7609 H          66.1404   65.3293   38.7994 H       730      M_A    0.0000
   7610 H          64.4165   63.9119   39.4086 H       730      M_A    0.0000
   7611 H          61.8217   64.1693   40.5162 H       730      M_A    0.0000
   7612 H          62.0422   64.5958   42.1719 H       730      M_A    0.0000
   7613 C          62.9469   65.2474   38.4811 C.3     731      M_A    0.0000
   7614 C          62.2832   63.9648   37.9596 C.3     731      M_A    0.0000
   7615 C          60.7459   64.0976   37.9981 C.2     731      M_A    0.0000
   7616 N          60.0380   63.0311   37.4874 N.3     731      M_A    0.0000
   7617 O          60.1323   65.0539   38.4644 O.2     731      M_A    0.0000
   7618 H          62.2195   65.9312   38.9347 H       731      M_A    0.0000
   7619 H          63.4008   65.8009   37.6482 H       731      M_A    0.0000
   7620 H          62.5451   63.1089   38.5963 H       731      M_A    0.0000
   7621 H          60.4796   62.4648   36.7674 H       731      M_A    0.0000
   7622 H          59.0380   63.1694   37.3975 H       731      M_A    0.0000
   7623 C          62.7551   63.6071   36.4724 C.3     732      M_A    0.0000
   7624 C          61.7310   64.0099   35.4017 C.3     732      M_A    0.0000
   7625 C          62.4316   64.7188   34.2231 C.2     732      M_A    0.0000
   7626 N          61.6211   65.0670   33.1642 N.3     732      M_A    0.0000
   7627 O          63.6250   65.0062   34.1821 O.2     732      M_A    0.0000
   7628 H          63.7391   64.0548   36.2888 H       732      M_A    0.0000
   7629 H          62.9113   62.5202   36.4529 H       732      M_A    0.0000
   7630 H          61.0022   64.7210   35.8135 H       732      M_A    0.0000
   7631 H          60.7875   64.5093   32.9965 H       732      M_A    0.0000
   7632 H          62.0984   65.4173   32.3415 H       732      M_A    0.0000
   7633 C          60.9051   62.7511   34.8578 C.3     733      M_A    0.0000
   7634 C          61.6249   61.9999   33.7286 C.3     733      M_A    0.0000
   7635 C          63.0984   61.7389   34.1067 C.2     733      M_A    0.0000
   7636 N          63.8314   61.0077   33.1970 N.3     733      M_A    0.0000
   7637 O          63.6489   62.1512   35.1243 O.2     733      M_A    0.0000
   7638 H          60.6585   62.0912   35.6981 H       733      M_A    0.0000
   7639 H          59.9467   63.1462   34.4949 H       733      M_A    0.0000
   7640 H          61.6335   62.6016   32.8097 H       733      M_A    0.0000
   7641 H          63.3356   60.3462   32.6048 H       733      M_A    0.0000
   7642 H          64.7579   60.7302   33.5001 H       733      M_A    0.0000
   7643 C          60.9062   60.6135   33.3769 C.3     734      M_A    0.0000
   7644 C          59.3763   60.6826   33.4868 C.3     734      M_A    0.0000
   7645 C          58.7262   59.5056   32.7288 C.2     734      M_A    0.0000
   7646 N          57.3532   59.4214   32.8141 N.3     734      M_A    0.0000
   7647 O          59.3350   58.6794   32.0539 O.2     734      M_A    0.0000
   7648 H          61.2322   60.2799   32.3846 H       734      M_A    0.0000
   7649 H          61.3008   59.8744   34.0870 H       734      M_A    0.0000
   7650 H          58.9981   61.6055   33.0268 H       734      M_A    0.0000
   7651 H          56.9013   59.8023   33.6416 H       734      M_A    0.0000
   7652 H          56.9389   58.5829   32.4236 H       734      M_A    0.0000
   7653 C          58.8834   60.6793   35.0098 C.3     735      M_A    0.0000
   7654 C          59.6900   61.0730   36.0078 C.3     735      M_A    0.0000
   7655 C          59.8705   60.0705   36.8929 C.2     735      M_A    0.0000
   7656 N          60.6299   60.3009   37.7994 N.3     735      M_A    0.0000
   7657 O          59.3777   59.1173   36.8535 O.2     735      M_A    0.0000
   7658 H          58.0805   61.2014   34.9696 H       735      M_A    0.0000
   7659 H          58.6004   59.7732   35.1541 H       735      M_A    0.0000
   7660 H          59.2964   61.8036   36.4909 H       735      M_A    0.0000
   7661 H          61.2799   60.8913   37.6605 H       735      M_A    0.0000
   7662 H          60.8323   59.6103   38.3165 H       735      M_A    0.0000
   7663 C          60.9319   61.5129   35.5360 C.3     736      M_A    0.0000
   7664 C          60.8967   62.7613   35.0441 C.3     736      M_A    0.0000
   7665 C          59.6237   63.2012   34.9624 C.2     736      M_A    0.0000
   7666 N          59.4841   64.3381   34.5883 N.3     736      M_A    0.0000
   7667 O          58.7529   62.6126   35.1816 O.2     736      M_A    0.0000
   7668 H          61.5846   61.4192   36.2318 H       736      M_A    0.0000
   7669 H          61.1914   60.8958   34.8477 H       736      M_A    0.0000
   7670 H          61.2567   62.7831   34.1542 H       736      M_A    0.0000
   7671 H          60.1424   64.9141   34.7469 H       736      M_A    0.0000
   7672 H          58.6606   64.6611   34.6389 H       736      M_A    0.0000
   7673 C          61.6529   63.6506   35.8160 C.3     737      M_A    0.0000
   7674 C          62.9737   63.5424   35.6025 C.3     737      M_A    0.0000
   7675 C          63.5302   62.7028   36.5003 C.2     737      M_A    0.0000
   7676 N          64.7072   62.4877   36.3586 N.3     737      M_A    0.0000
   7677 O          63.0107   62.2460   37.3215 O.2     737      M_A    0.0000
   7678 H          61.3371   64.5436   35.6681 H       737      M_A    0.0000
   7679 H          61.4508   63.4491   36.7327 H       737      M_A    0.0000
   7680 H          63.4038   64.3937   35.7132 H       737      M_A    0.0000
   7681 H          65.0478   62.5495   35.5398 H       737      M_A    0.0000
   7682 H          65.0478   61.8553   36.8775 H       737      M_A    0.0000
   7683 C          63.2609   63.1016   34.3057 C.3     738      M_A    0.0000
   7684 C          64.2874   63.7571   33.7414 C.3     738      M_A    0.0000
   7685 C          64.0897   65.0903   33.8066 C.2     738      M_A    0.0000
   7686 N          64.9848   65.7753   33.3807 N.3     738      M_A    0.0000
   7687 O          63.2024   65.5643   34.1823 O.2     738      M_A    0.0000
   7688 H          63.4040   62.1539   34.3193 H       738      M_A    0.0000
   7689 H          62.4613   63.2392   33.7922 H       738      M_A    0.0000
   7690 H          64.3607   63.5315   32.8110 H       738      M_A    0.0000
   7691 H          65.8110   65.4483   33.4085 H       738      M_A    0.0000
   7692 H          64.9035   66.6462   33.5225 H       738      M_A    0.0000
   7693 C          65.5097   63.4332   34.3411 C.3     739      M_A    0.0000
   7694 C          66.1991   62.5021   33.6631 C.3     739      M_A    0.0000
   7695 C          66.7993   63.0499   32.5858 C.2     739      M_A    0.0000
   7696 N          67.4961   62.3090   31.9398 N.3     739      M_A    0.0000
   7697 O          66.6808   64.0678   32.2653 O.2     739      M_A    0.0000
   7698 H          66.0197   64.2346   34.4702 H       739      M_A    0.0000
   7699 H          65.2999   63.1108   35.2208 H       739      M_A    0.0000
   7700 H          65.6098   61.8182   33.3360 H       739      M_A    0.0000
   7701 H          67.8766   61.6227   32.3575 H       739      M_A    0.0000
   7702 H          67.9746   62.6918   31.2997 H       739      M_A    0.0000
   7703 C          67.1569   61.8713   34.4650 C.3     740      M_A    0.0000
   7704 C          68.0703   62.7202   34.9617 C.3     740      M_A    0.0000
   7705 C          68.0056   62.7485   36.3092 C.2     740      M_A    0.0000
   7706 N          68.8273   63.4365   36.8599 N.3     740      M_A    0.0000
   7707 O          67.2761   62.2299   36.9023 O.2     740      M_A    0.0000
   7708 H          66.7132   61.3765   35.1558 H       740      M_A    0.0000
   7709 H          67.5851   61.2174   33.9073 H       740      M_A    0.0000
   7710 H          67.9007   63.6145   34.6558 H       740      M_A    0.0000
   7711 H          69.6061   63.5656   36.4512 H       740      M_A    0.0000
   7712 H          68.8550   63.3699   37.7431 H       740      M_A    0.0000
   7713 C          69.3689   62.3871   34.5602 C.3     741      M_A    0.0000
   7714 C          69.7819   61.2037   35.0405 C.3     741      M_A    0.0000
   7715 C          68.8241   60.2673   34.8772 C.2     741      M_A    0.0000
   7716 N          69.1176   59.1505   35.2213 N.3     741      M_A    0.0000
   7717 O          67.8392   60.4536   34.4923 O.2     741      M_A    0.0000
   7718 H          69.4228   62.4252   33.6039 H       741      M_A    0.0000
   7719 H          69.9382   63.0895   34.8835 H       741      M_A    0.0000
   7720 H          69.9544   61.2642   35.9832 H       741      M_A    0.0000
   7721 H          69.9748   58.9165   35.1945 H       741      M_A    0.0000
   7722 H          68.5325   58.5181   35.0143 H       741      M_A    0.0000
   7723 C          70.9669   60.7752   34.4318 C.3     742      M_A    0.0000
   7724 C          72.0406   60.8908   35.2290 C.3     742      M_A    0.0000
   7725 C          72.3547   62.1901   35.4133 C.2     742      M_A    0.0000
   7726 N          73.2706   62.4073   36.1654 N.3     742      M_A    0.0000
   7727 O          71.8689   63.0163   34.9292 O.2     742      M_A    0.0000
   7728 H          70.8512   59.8787   34.1128 H       742      M_A    0.0000
   7729 H          71.0788   61.3201   33.6492 H       742      M_A    0.0000
   7730 H          72.8059   60.4736   34.8262 H       742      M_A    0.0000
   7731 H          73.4305   61.8172   36.8108 H       742      M_A    0.0000
   7732 H          73.4059   63.2585   36.3709 H       742      M_A    0.0000
   7733 C          71.8414   60.2747   36.4697 C.3     743      M_A    0.0000
   7734 C          71.7072   58.9421   36.3810 C.3     743      M_A    0.0000
   7735 C          72.2514   58.4878   35.2328 C.2     743      M_A    0.0000
   7736 N          72.2382   57.2924   35.0825 N.3     743      M_A    0.0000
   7737 O          72.6628   59.1074   34.4583 O.2     743      M_A    0.0000
   7738 H          72.5507   60.5255   37.0638 H       743      M_A    0.0000
   7739 H          71.0427   60.6616   36.8362 H       743      M_A    0.0000
   7740 H          70.7789   58.6972   36.3652 H       743      M_A    0.0000
   7741 H          72.2443   56.7797   35.8086 H       743      M_A    0.0000
   7742 H          72.6906   56.9876   34.3842 H       743      M_A    0.0000
   7743 C          72.2885   58.2828   37.4699 C.3     744      M_A    0.0000
   7744 C          71.4041   57.9700   38.4300 C.3     744      M_A    0.0000
   7745 C          71.8350   56.9074   39.1414 C.2     744      M_A    0.0000
   7746 N          71.1406   56.5810   40.0704 N.3     744      M_A    0.0000
   7747 O          72.7191   56.3380   38.9245 O.2     744      M_A    0.0000
   7748 H          72.7639   57.5123   37.1548 H       744      M_A    0.0000
   7749 H          72.9556   58.8784   37.8193 H       744      M_A    0.0000
   7750 H          70.5605   57.7231   38.0436 H       744      M_A    0.0000
   7751 H          70.6481   57.2075   40.4645 H       744      M_A    0.0000
   7752 H          71.4769   55.9561   40.6009 H       744      M_A    0.0000
   7753 C          71.1630   59.0461   39.2917 C.3     745      M_A    0.0000
   7754 C          71.9511   59.0380   40.3783 C.3     745      M_A    0.0000
   7755 C          73.1019   59.6982   40.1322 C.2     745      M_A    0.0000
   7756 N          73.8573   59.8023   41.0651 N.3     745      M_A    0.0000
   7757 O          73.3879   60.1047   39.1804 O.2     745      M_A    0.0000
   7758 H          71.2369   59.8659   38.8005 H       745      M_A    0.0000
   7759 H          70.2417   58.9789   39.5536 H       745      M_A    0.0000
   7760 H          72.1908   58.1386   40.6141 H       745      M_A    0.0000
   7761 H          73.5120   59.8044   41.8843 H       745      M_A    0.0000
   7762 H          74.5593   60.3270   40.9349 H       745      M_A    0.0000
   7763 C          71.3155   59.5999   41.4913 C.3     746      M_A    0.0000
   7764 C          71.8969   59.2664   42.6543 C.3     746      M_A    0.0000
   7765 C          71.3690   58.1214   43.1352 C.2     746      M_A    0.0000
   7766 N          71.8649   57.6999   44.1492 N.3     746      M_A    0.0000
   7767 O          70.5452   57.5906   42.6966 O.2     746      M_A    0.0000
   7768 H          71.2605   60.5500   41.3767 H       746      M_A    0.0000
   7769 H          70.4102   59.2803   41.4731 H       746      M_A    0.0000
   7770 H          71.7405   59.9446   43.3159 H       746      M_A    0.0000
   7771 H          72.7163   57.8975   44.3117 H       746      M_A    0.0000
   7772 H          71.5942   56.8957   44.4043 H       746      M_A    0.0000
   7773 C          73.2835   59.1276   42.5267 C.3     747      M_A    0.0000
   7774 C          73.9702   60.0921   43.1591 C.3     747      M_A    0.0000
   7775 C          74.0832   59.8076   44.4733 C.2     747      M_A    0.0000
   7776 N          74.7368   60.5828   45.1241 N.3     747      M_A    0.0000
   7777 O          73.6225   58.9713   44.9647 O.2     747      M_A    0.0000
   7778 H          73.5411   58.2521   42.8201 H       747      M_A    0.0000
   7779 H          73.4704   59.1547   41.5853 H       747      M_A    0.0000
   7780 H          73.5089   60.9318   43.0946 H       747      M_A    0.0000
   7781 H          75.3820   61.0346   44.7118 H       747      M_A    0.0000
   7782 H          74.9020   60.3396   45.9600 H       747      M_A    0.0000
   7783 C          75.2427   60.2779   42.6072 C.3     748      M_A    0.0000
   7784 C          75.5070   61.5604   42.3119 C.3     748      M_A    0.0000
   7785 C          74.6874   62.3823   43.0001 C.2     748      M_A    0.0000
   7786 N          74.8826   63.5621   42.8530 N.3     748      M_A    0.0000
   7787 O          73.8824   62.0609   43.6338 O.2     748      M_A    0.0000
   7788 H          75.8995   59.9022   43.1957 H       748      M_A    0.0000
   7789 H          75.2695   59.7449   41.8091 H       748      M_A    0.0000
   7790 H          75.3530   61.7302   41.3795 H       748      M_A    0.0000
   7791 H          75.7062   63.8273   42.6488 H       748      M_A    0.0000
   7792 H          74.4196   64.0979   43.3856 H       748      M_A    0.0000
   7793 C          76.8397   61.8957   42.5767 C.3     749      M_A    0.0000
   7794 C          76.9647   62.9514   43.3962 C.3     749      M_A    0.0000
   7795 C          78.1500   62.9121   44.0399 C.2     749      M_A    0.0000
   7796 N          78.3890   63.8499   44.7577 N.3     749      M_A    0.0000
   7797 O          78.8620   62.1112   43.9721 O.2     749      M_A    0.0000
   7798 H          77.2981   61.1238   42.9128 H       749      M_A    0.0000
   7799 H          77.2414   62.0904   41.7267 H       749      M_A    0.0000
   7800 H          76.2810   62.9376   44.0703 H       749      M_A    0.0000
   7801 H          78.0188   64.6333   44.5591 H       749      M_A    0.0000
   7802 H          79.2086   63.8781   45.0934 H       749      M_A    0.0000
   7803 C          76.8422   64.1651   42.7104 C.3     750      M_A    0.0000
   7804 C          77.7163   65.0955   43.1253 C.3     750      M_A    0.0000
   7805 C          78.9266   64.5415   43.3466 C.2     750      M_A    0.0000
   7806 N          79.8029   65.3045   43.6655 N.3     750      M_A    0.0000
   7807 O          79.1457   63.4924   43.2802 O.2     750      M_A    0.0000
   7808 H          76.9105   64.0031   41.7681 H       750      M_A    0.0000
   7809 H          75.9437   64.4686   42.8603 H       750      M_A    0.0000
   7810 H          77.4296   65.4801   43.9572 H       750      M_A    0.0000
   7811 H          79.7458   66.1467   43.3869 H       750      M_A    0.0000
   7812 H          80.6181   64.9593   43.7040 H       750      M_A    0.0000
   7813 C          77.8403   66.1449   42.2078 C.3     751      M_A    0.0000
   7814 C          77.9855   67.3435   42.7943 C.3     751      M_A    0.0000
   7815 C          79.0803   67.9728   42.3187 C.2     751      M_A    0.0000
   7816 N          79.2690   69.0868   42.7373 N.3     751      M_A    0.0000
   7817 O          79.7846   67.5476   41.6287 O.2     751      M_A    0.0000
   7818 H          78.5584   65.9517   41.6030 H       751      M_A    0.0000
   7819 H          77.0400   66.1336   41.6774 H       751      M_A    0.0000
   7820 H          78.1115   67.2424   43.7409 H       751      M_A    0.0000
   7821 H          78.5632   69.5611   42.9965 H       751      M_A    0.0000
   7822 H          79.9222   69.5393   42.3454 H       751      M_A    0.0000
   7823 C          76.8604   68.1558   42.6132 C.3     752      M_A    0.0000
   7824 C          76.3375   68.5971   43.7680 C.3     752      M_A    0.0000
   7825 C          76.8104   69.8264   44.0616 C.2     752      M_A    0.0000
   7826 N          76.3556   70.3412   45.0515 N.3     752      M_A    0.0000
   7827 O          77.5601   70.3492   43.4981 O.2     752      M_A    0.0000
   7828 H          77.0836   68.8762   42.0215 H       752      M_A    0.0000
   7829 H          76.2158   67.6208   42.1440 H       752      M_A    0.0000
   7830 H          76.5892   68.0211   44.4938 H       752      M_A    0.0000
   7831 H          75.5346   70.1109   45.3029 H       752      M_A    0.0000
   7832 H          76.5826   71.1875   45.1837 H       752      M_A    0.0000
   7833 C          74.9388   68.6275   43.7326 C.3     753      M_A    0.0000
   7834 C          74.3726   68.1371   44.8465 C.3     753      M_A    0.0000
   7835 C          73.2744   68.8505   45.1717 C.2     753      M_A    0.0000
   7836 N          72.6544   68.4542   46.1259 N.3     753      M_A    0.0000
   7837 O          72.9410   69.7352   44.6627 O.2     753      M_A    0.0000
   7838 H          74.6475   69.5214   43.5453 H       753      M_A    0.0000
   7839 H          74.6781   68.1017   42.9727 H       753      M_A    0.0000
   7840 H          74.9776   68.2030   45.5892 H       753      M_A    0.0000
   7841 H          72.6922   67.5871   46.3181 H       753      M_A    0.0000
   7842 H          71.8776   68.8543   46.2730 H       753      M_A    0.0000
   7843 C          74.0327   66.7863   44.7110 C.3     754      M_A    0.0000
   7844 C          72.7692   66.5213   45.0785 C.3     754      M_A    0.0000
   7845 C          71.9503   67.5309   44.7167 C.2     754      M_A    0.0000
   7846 N          70.7793   67.3653   44.9470 N.3     754      M_A    0.0000
   7847 O          72.2696   68.4538   44.2704 O.2     754      M_A    0.0000
   7848 H          74.2120   66.5047   43.8124 H       754      M_A    0.0000
   7849 H          74.6455   66.2984   45.2663 H       754      M_A    0.0000
   7850 H          72.7059   66.4399   46.0332 H       754      M_A    0.0000
   7851 H          70.4714   66.5316   44.9690 H       754      M_A    0.0000
   7852 H          70.2314   67.9761   44.6126 H       754      M_A    0.0000
   7853 C          72.3048   65.3200   44.5312 C.3     755      M_A    0.0000
   7854 C          71.9688   64.4122   45.4611 C.3     755      M_A    0.0000
   7855 C          70.6446   64.4642   45.7155 C.2     755      M_A    0.0000
   7856 N          70.2272   63.6457   46.4949 N.3     755      M_A    0.0000
   7857 O          69.9643   65.1816   45.2968 O.2     755      M_A    0.0000
   7858 H          71.5797   65.5059   43.9323 H       755      M_A    0.0000
   7859 H          73.0173   64.9813   43.9839 H       755      M_A    0.0000
   7860 H          72.4189   64.5956   46.2892 H       755      M_A    0.0000
   7861 H          70.6608   62.8725   46.5614 H       755      M_A    0.0000
   7862 H          69.3458   63.6087   46.5784 H       755      M_A    0.0000
   7863 C          72.3234   63.1136   45.0786 C.3     756      M_A    0.0000
   7864 C          71.4315   62.1881   45.4654 C.3     756      M_A    0.0000
   7865 C          71.3624   61.1906   44.5593 C.2     756      M_A    0.0000
   7866 N          70.6324   60.2745   44.8415 N.3     756      M_A    0.0000
   7867 O          71.8840   61.1731   43.6209 O.2     756      M_A    0.0000
   7868 H          72.4740   63.0938   44.1321 H       756      M_A    0.0000
   7869 H          73.1759   62.9378   45.4839 H       756      M_A    0.0000
   7870 H          70.5530   62.5710   45.5256 H       756      M_A    0.0000
   7871 H          70.4924   60.1014   45.7021 H       756      M_A    0.0000
   7872 H          70.6700   59.5726   44.3020 H       756      M_A    0.0000
   7873 C          71.7372   61.6591   46.7245 C.3     757      M_A    0.0000
   7874 C          71.9758   60.3384   46.6976 C.3     757      M_A    0.0000
   7875 C          72.2315   59.8791   47.9403 C.2     757      M_A    0.0000
   7876 N          72.4001   58.6899   48.0361 N.3     757      M_A    0.0000
   7877 O          72.3139   60.4910   48.8188 O.2     757      M_A    0.0000
   7878 H          72.4693   62.1487   47.1029 H       757      M_A    0.0000
   7879 H          70.9797   61.8447   47.2846 H       757      M_A    0.0000
   7880 H          72.7513   60.1469   46.1647 H       757      M_A    0.0000
   7881 H          72.0015   58.1620   47.4422 H       757      M_A    0.0000
   7882 H          72.4589   58.3752   48.8623 H       757      M_A    0.0000
   7883 C          70.9082   59.6238   46.1426 C.3     758      M_A    0.0000
   7884 C          70.6558   58.4714   46.7830 C.3     758      M_A    0.0000
   7885 C          69.6784   58.6432   47.6973 C.2     758      M_A    0.0000
   7886 N          69.3320   57.6519   48.2880 N.3     758      M_A    0.0000
   7887 O          69.2197   59.5832   47.9400 O.2     758      M_A    0.0000
   7888 H          70.1357   60.1901   46.1044 H       758      M_A    0.0000
   7889 H          71.1493   59.4466   45.2303 H       758      M_A    0.0000
   7890 H          71.4342   58.1734   47.2598 H       758      M_A    0.0000
   7891 H          69.4222   56.8681   47.8783 H       758      M_A    0.0000
   7892 H          68.6193   57.7426   48.8067 H       758      M_A    0.0000
   7893 C          70.2977   57.4475   45.8987 C.3     759      M_A    0.0000
   7894 C          70.9417   56.2945   46.1388 C.3     759      M_A    0.0000
   7895 C          70.2266   55.2485   45.6749 C.2     759      M_A    0.0000
   7896 N          70.7458   54.1669   45.7861 N.3     759      M_A    0.0000
   7897 O          69.2444   55.3149   45.2462 O.2     759      M_A    0.0000
   7898 H          69.3456   57.3370   45.9134 H       759      M_A    0.0000
   7899 H          70.5115   57.7661   45.0186 H       759      M_A    0.0000
   7900 H          71.0513   56.1601   47.0832 H       759      M_A    0.0000
   7901 H          71.6339   54.1282   45.7924 H       759      M_A    0.0000
   7902 H          70.3276   53.4965   45.3852 H       759      M_A    0.0000
   7903 C          72.2201   56.2795   45.5697 C.3     760      M_A    0.0000
   7904 C          72.3068   55.4878   44.4892 C.3     760      M_A    0.0000
   7905 C          71.1472   54.8257   44.2943 C.2     760      M_A    0.0000
   7906 N          71.0983   54.1308   43.3112 N.3     760      M_A    0.0000
   7907 O          70.2994   54.8607   44.9522 O.2     760      M_A    0.0000
   7908 H          72.4907   57.1790   45.3785 H       760      M_A    0.0000
   7909 H          72.8152   55.9662   46.2550 H       760      M_A    0.0000
   7910 H          72.9895   54.8238   44.6118 H       760      M_A    0.0000
   7911 H          71.6018   54.3566   42.6142 H       760      M_A    0.0000
   7912 H          70.3045   53.7839   43.1247 H       760      M_A    0.0000
   7913 C          72.6361   56.2088   43.3358 C.3     761      M_A    0.0000
   7914 C          72.6988   55.4427   42.2353 C.3     761      M_A    0.0000
   7915 C          71.4583   55.1394   41.7995 C.2     761      M_A    0.0000
   7916 N          71.4018   54.5029   40.7780 N.3     761      M_A    0.0000
   7917 O          70.5468   55.4023   42.3024 O.2     761      M_A    0.0000
   7918 H          72.0205   56.9363   43.2323 H       761      M_A    0.0000
   7919 H          73.4914   56.6105   43.5055 H       761      M_A    0.0000
   7920 H          73.1374   54.6107   42.4285 H       761      M_A    0.0000
   7921 H          72.0674   54.5882   40.1949 H       761      M_A    0.0000
   7922 H          70.5917   54.3980   40.4346 H       761      M_A    0.0000
   7923 C          73.4206   56.0597   41.2073 C.3     762      M_A    0.0000
   7924 C          74.3936   55.2824   40.7065 C.3     762      M_A    0.0000
   7925 C          73.9312   54.5573   39.6667 C.2     762      M_A    0.0000
   7926 N          74.7440   53.8683   39.1044 N.3     762      M_A    0.0000
   7927 O          72.9106   54.5394   39.3333 O.2     762      M_A    0.0000
   7928 H          72.8119   56.3554   40.5283 H       762      M_A    0.0000
   7929 H          73.7990   56.8567   41.5860 H       762      M_A    0.0000
   7930 H          74.6995   54.6572   41.3680 H       762      M_A    0.0000
   7931 H          75.5942   54.1274   39.1201 H       762      M_A    0.0000
   7932 H          74.4674   53.4784   38.3583 H       762      M_A    0.0000
   7933 C          75.5053   56.0296   40.3012 C.3     763      M_A    0.0000
   7934 C          76.0766   55.5593   39.1812 C.3     763      M_A    0.0000
   7935 C          75.2267   55.6625   38.1381 C.2     763      M_A    0.0000
   7936 N          75.6647   55.3226   37.0684 N.3     763      M_A    0.0000
   7937 O          74.2085   55.9971   38.2034 O.2     763      M_A    0.0000
   7938 H          75.2523   56.9503   40.2160 H       763      M_A    0.0000
   7939 H          76.1313   55.9954   41.0284 H       763      M_A    0.0000
   7940 H          76.2886   54.6277   39.2766 H       763      M_A    0.0000
   7941 H          76.5408   55.3919   36.9343 H       763      M_A    0.0000
   7942 H          75.1471   55.4921   36.3695 H       763      M_A    0.0000
   7943 C          77.2708   56.2248   38.8822 C.3     764      M_A    0.0000
   7944 C          78.2672   55.3923   38.5421 C.3     764      M_A    0.0000
   7945 C          78.2246   55.1190   37.2213 C.2     764      M_A    0.0000
   7946 N          79.1152   54.4258   36.7996 N.3     764      M_A    0.0000
   7947 O          77.4578   55.4520   36.5475 O.2     764      M_A    0.0000
   7948 H          77.1044   56.8818   38.2042 H       764      M_A    0.0000
   7949 H          77.5088   56.7167   39.6717 H       764      M_A    0.0000
   7950 H          78.1785   54.5545   39.0029 H       764      M_A    0.0000
   7951 H          79.8969   54.4462   37.2225 H       764      M_A    0.0000
   7952 H          79.1490   54.3368   35.9186 H       764      M_A    0.0000
   7953 C          79.5228   55.9138   38.8740 C.3     765      M_A    0.0000
   7954 C          80.1222   56.5380   37.8480 C.3     765      M_A    0.0000
   7955 C          79.2261   57.2653   37.1487 C.2     765      M_A    0.0000
   7956 N          79.6736   57.9160   36.2388 N.3     765      M_A    0.0000
   7957 O          78.1684   57.2824   37.3327 O.2     765      M_A    0.0000
   7958 H          79.4349   56.4840   39.6395 H       765      M_A    0.0000
   7959 H          80.0555   55.1685   39.1614 H       765      M_A    0.0000
   7960 H          80.4988   55.8989   37.2382 H       765      M_A    0.0000
   7961 H          80.5176   58.1892   36.2958 H       765      M_A    0.0000
   7962 H          79.1065   58.4753   35.8507 H       765      M_A    0.0000
   7963 C          81.1675   57.3646   38.2754 C.3     766      M_A    0.0000
   7964 C          81.9426   57.7974   37.2686 C.3     766      M_A    0.0000
   7965 C          81.4721   57.3519   36.0849 C.2     766      M_A    0.0000
   7966 N          82.0630   57.7352   35.1073 N.3     766      M_A    0.0000
   7967 O          80.6434   56.6799   35.9646 O.2     766      M_A    0.0000
   7968 H          80.8065   58.0897   38.7881 H       766      M_A    0.0000
   7969 H          81.6885   56.8423   38.8899 H       766      M_A    0.0000
   7970 H          82.8354   57.4560   37.3599 H       766      M_A    0.0000
   7971 H          82.4798   58.5192   35.1514 H       766      M_A    0.0000
   7972 H          81.6907   57.5330   34.3291 H       766      M_A    0.0000
   7973 C          82.0365   59.1935   37.2418 C.3     767      M_A    0.0000
   7974 C          83.0323   59.6399   36.4602 C.3     767      M_A    0.0000
   7975 C          84.0041   58.7096   36.3557 C.2     767      M_A    0.0000
   7976 N          84.9203   58.9874   35.6241 N.3     767      M_A    0.0000
   7977 O          84.0226   57.7754   36.8847 O.2     767      M_A    0.0000
   7978 H          81.1885   59.5617   36.9885 H       767      M_A    0.0000
   7979 H          82.1823   59.4701   38.1496 H       767      M_A    0.0000
   7980 H          83.4360   60.4226   36.8428 H       767      M_A    0.0000
   7981 H          84.7611   59.5395   34.9459 H       767      M_A    0.0000
   7982 H          85.5009   58.3359   35.4705 H       767      M_A    0.0000
   7983 C          82.5795   59.9922   35.1838 C.3     768      M_A    0.0000
   7984 C          83.0631   61.1703   34.7595 C.3     768      M_A    0.0000
   7985 C          84.3932   61.0864   34.5480 C.2     768      M_A    0.0000
   7986 N          84.9179   62.0768   34.1058 N.3     768      M_A    0.0000
   7987 O          84.9985   60.2262   34.7636 O.2     768      M_A    0.0000
   7988 H          82.7772   59.2814   34.5718 H       768      M_A    0.0000
   7989 H          81.6218   60.0314   35.2402 H       768      M_A    0.0000
   7990 H          82.9291   61.8490   35.4254 H       768      M_A    0.0000
   7991 H          84.4244   62.6255   33.6101 H       768      M_A    0.0000
   7992 H          85.7660   61.9878   33.8650 H       768      M_A    0.0000
   7993 C          82.4280   61.6081   33.5918 C.3     769      M_A    0.0000
   7994 C          81.5412   62.5915   33.8112 C.3     769      M_A    0.0000
   7995 C          82.1373   63.6385   34.4189 C.2     769      M_A    0.0000
   7996 N          81.4400   64.6028   34.6072 N.3     769      M_A    0.0000
   7997 O          83.1569   63.6572   34.7550 O.2     769      M_A    0.0000
   7998 H          83.0916   61.8600   32.9475 H       769      M_A    0.0000
   7999 H          81.9832   60.8406   33.2244 H       769      M_A    0.0000
   8000 H          80.8422   62.2905   34.3968 H       769      M_A    0.0000
   8001 H          80.7598   64.7418   34.0520 H       769      M_A    0.0000
   8002 H          81.8564   65.3262   34.9049 H       769      M_A    0.0000
   8003 C          80.9303   63.0205   32.6275 C.3     770      M_A    0.0000
   8004 C          80.6603   64.3353   32.6201 C.3     770      M_A    0.0000
   8005 C          80.0558   64.6871   31.4662 C.2     770      M_A    0.0000
   8006 N          79.7148   65.8397   31.3823 N.3     770      M_A    0.0000
   8007 O          79.8849   64.0298   30.6346 O.2     770      M_A    0.0000
   8008 H          81.4726   62.7610   31.8808 H       770      M_A    0.0000
   8009 H          80.1162   62.5176   32.5481 H       770      M_A    0.0000
   8010 H          81.4714   64.8462   32.6767 H       770      M_A    0.0000
   8011 H          79.5223   66.2745   32.1335 H       770      M_A    0.0000
   8012 H          79.2228   66.0447   30.6744 H       770      M_A    0.0000
   8013 C          79.8599   64.7125   33.7043 C.3     771      M_A    0.0000
   8014 C          78.5809   64.9350   33.3630 C.3     771      M_A    0.0000
   8015 C          77.8794   63.7825   33.3821 C.2     771      M_A    0.0000
   8016 N          76.7014   63.8809   33.1487 N.3     771      M_A    0.0000
   8017 O          78.2964   62.8100   33.5646 O.2     771      M_A    0.0000
   8018 H          79.9374   64.0548   34.3973 H       771      M_A    0.0000
   8019 H          80.2495   65.5151   34.0592 H       771      M_A    0.0000
   8020 H          78.5259   65.2798   32.4685 H       771      M_A    0.0000
   8021 H          76.2985   64.6479   33.3479 H       771      M_A    0.0000
   8022 H          76.2229   63.1448   33.2683 H       771      M_A    0.0000
   8023 C          77.9691   65.8718   34.2035 C.3     772      M_A    0.0000
   8024 C          78.3558   65.7626   35.4842 C.3     772      M_A    0.0000
   8025 C          78.7868   66.9532   35.9508 C.2     772      M_A    0.0000
   8026 N          79.1013   66.9787   37.1136 N.3     772      M_A    0.0000
   8027 O          78.8853   67.8464   35.3632 O.2     772      M_A    0.0000
   8028 H          78.1200   66.7526   33.8566 H       772      M_A    0.0000
   8029 H          77.0238   65.7197   34.1317 H       772      M_A    0.0000
   8030 H          79.0908   65.1499   35.5633 H       772      M_A    0.0000
   8031 H          78.7092   66.4025   37.6655 H       772      M_A    0.0000
   8032 H          79.2791   67.7804   37.4464 H       772      M_A    0.0000
   8033 C          77.3283   65.2808   36.3031 C.3     773      M_A    0.0000
   8034 C          77.7779   64.5760   37.3533 C.3     773      M_A    0.0000
   8035 C          78.0384   63.3025   36.9910 C.2     773      M_A    0.0000
   8036 N          78.5063   62.5978   37.8490 N.3     773      M_A    0.0000
   8037 O          77.8401   62.8845   36.0220 O.2     773      M_A    0.0000
   8038 H          76.7714   66.0126   36.5737 H       773      M_A    0.0000
   8039 H          76.7790   64.7249   35.7454 H       773      M_A    0.0000
   8040 H          77.1118   64.5384   38.0439 H       773      M_A    0.0000
   8041 H          78.9867   62.9828   38.4903 H       773      M_A    0.0000
   8042 H          78.7781   61.7973   37.5834 H       773      M_A    0.0000
   8043 C          78.9238   65.1482   37.9171 C.3     774      M_A    0.0000
   8044 C          79.6396   65.8687   37.0395 C.3     774      M_A    0.0000
   8045 C          79.9454   67.0764   37.5578 C.2     774      M_A    0.0000
   8046 N          80.6408   67.7815   36.8715 N.3     774      M_A    0.0000
   8047 O          79.6000   67.4461   38.5049 O.2     774      M_A    0.0000
   8048 H          78.6733   65.6638   38.6855 H       774      M_A    0.0000
   8049 H          79.4515   64.4188   38.2510 H       774      M_A    0.0000
   8050 H          79.1310   66.0289   36.2409 H       774      M_A    0.0000
   8051 H          81.1994   67.3899   36.3014 H       774      M_A    0.0000
   8052 H          80.9308   68.5258   37.2549 H       774      M_A    0.0000
   8053 C          80.8136   65.2111   36.6549 C.3     775      M_A    0.0000
   8054 C          81.8995   65.9984   36.7060 C.3     775      M_A    0.0000
   8055 C          82.9688   65.3006   37.1425 C.2     775      M_A    0.0000
   8056 N          84.0130   65.9013   37.1676 N.3     775      M_A    0.0000
   8057 O          82.9440   64.2815   37.4797 O.2     775      M_A    0.0000
   8058 H          80.9190   64.4189   37.1842 H       775      M_A    0.0000
   8059 H          80.6692   64.9086   35.7552 H       775      M_A    0.0000
   8060 H          81.7647   66.7187   37.3265 H       775      M_A    0.0000
   8061 H          84.1252   66.5690   36.5916 H       775      M_A    0.0000
   8062 H          84.7318   65.4156   37.3486 H       775      M_A    0.0000
   8063 C          82.1889   66.5740   35.4636 C.3     776      M_A    0.0000
   8064 C          82.3188   67.9089   35.5186 C.3     776      M_A    0.0000
   8065 C          82.9429   68.2764   36.6572 C.2     776      M_A    0.0000
   8066 N          83.1645   69.4546   36.7776 N.3     776      M_A    0.0000
   8067 O          83.2258   67.6079   37.4484 O.2     776      M_A    0.0000
   8068 H          82.9666   66.1524   35.0944 H       776      M_A    0.0000
   8069 H          81.4616   66.3384   34.8828 H       776      M_A    0.0000
   8070 H          81.4566   68.3314   35.5248 H       776      M_A    0.0000
   8071 H          83.2703   69.9377   36.0389 H       776      M_A    0.0000
   8072 H          83.6688   69.6822   37.4697 H       776      M_A    0.0000
   8073 C          83.0168   68.4138   34.4158 C.3     777      M_A    0.0000
   8074 C          82.4985   69.5581   33.9428 C.2     777      M_A    0.0000
   8075 C          83.0821   70.6212   34.5344 C.2     777      M_A    0.0000
   8076 N          82.7303   71.7025   34.1358 N.3     777      M_A    0.0000
   8077 O          83.8018   70.5661   35.3294 O.2     777      M_A    0.0000
   8078 H          83.9431   68.5066   34.6445 H       777      M_A    0.0000
   8079 H          82.9801   67.7326   33.7401 H       777      M_A    0.0000
   8080 H          81.5602   69.6099   34.1400 H       777      M_A    0.0000
   8081 H          82.4420   71.7654   33.2972 H       777      M_A    0.0000
   8082 H          83.1898   72.3943   34.4447 H       777      M_A    0.0000
   8083 C          75.6921   84.8152   22.1036 C.2     778      M_A    0.0000
   8084 C          76.6120   86.0357   22.6400 C.3     778      M_A    0.0000
   8085 C          75.7317   87.3995   22.7685 C.2     778      M_A    0.0000
   8086 N          76.4282   88.5544   23.3116 N.3     778      M_A    0.0000
   8087 O          74.4948   87.5235   22.4031 O.2     778      M_A    0.0000
   8088 H          75.2253   84.2101   22.9720 H       778      M_A    0.0000
   8089 H          76.3402   84.0633   21.5059 H       778      M_A    0.0000
   8090 H          77.4691   86.2579   21.8926 H       778      M_A    0.0000
   8091 H          77.2450   88.3802   23.9850 H       778      M_A    0.0000
   8092 H          75.8192   89.4085   23.5188 H       778      M_A    0.0000
   8093 C          77.3294   85.6812   24.1272 C.3     779      M_A    0.0000
   8094 C          78.4486   84.5142   24.0315 C.3     779      M_A    0.0000
   8095 C          79.1823   84.5457   22.5782 C.2     779      M_A    0.0000
   8096 N          80.2623   83.5901   22.3929 N.3     779      M_A    0.0000
   8097 O          78.8562   85.3267   21.5971 O.2     779      M_A    0.0000
   8098 H          77.7558   86.6541   24.5854 H       779      M_A    0.0000
   8099 H          76.4702   85.3498   24.8304 H       779      M_A    0.0000
   8100 H          77.9574   83.4701   24.1375 H       779      M_A    0.0000
   8101 H          80.8074   83.2705   23.2599 H       779      M_A    0.0000
   8102 H          80.8286   83.6986   21.4924 H       779      M_A    0.0000
   8103 C          79.6059   84.6453   25.2543 C.3     780      M_A    0.0000
   8104 C          80.2337   83.2176   25.6916 C.3     780      M_A    0.0000
   8105 C          81.8196   83.3710   26.0274 C.2     780      M_A    0.0000
   8106 N          82.4853   82.1696   26.5045 N.3     780      M_A    0.0000
   8107 O          82.5106   84.4564   25.8750 O.2     780      M_A    0.0000
   8108 H          80.4227   85.3957   24.9262 H       780      M_A    0.0000
   8109 H          79.0693   85.1354   26.1568 H       780      M_A    0.0000
   8110 H          80.1459   82.4525   24.8259 H       780      M_A    0.0000
   8111 H          81.8967   81.4402   27.0264 H       780      M_A    0.0000
   8112 H          83.4890   82.3009   26.8490 H       780      M_A    0.0000
   8113 C          79.4333   82.5553   27.0230 C.3     781      M_A    0.0000
   8114 C          80.4213   81.7519   28.0240 C.3     781      M_A    0.0000
   8115 C          81.9396   81.7364   27.4357 C.2     781      M_A    0.0000
   8116 N          82.9403   81.1060   28.2814 N.3     781      M_A    0.0000
   8117 O          82.2960   82.2119   26.2843 O.2     781      M_A    0.0000
   8118 H          78.8483   83.3905   27.5693 H       781      M_A    0.0000
   8119 H          78.6326   81.8358   26.5945 H       781      M_A    0.0000
   8120 H          80.0881   80.6466   28.1238 H       781      M_A    0.0000
   8121 H          82.7781   81.1078   29.3419 H       781      M_A    0.0000
   8122 H          83.9541   81.2118   27.9584 H       781      M_A    0.0000
   8123 C          80.4218   82.4129   29.5781 C.3     782      M_A    0.0000
   8124 C          80.8839   81.3585   30.7176 C.3     782      M_A    0.0000
   8125 C          80.1202   79.9340   30.5197 C.2     782      M_A    0.0000
   8126 N          80.5050   78.8758   31.4396 N.3     782      M_A    0.0000
   8127 O          79.1998   79.6997   29.6383 O.2     782      M_A    0.0000
   8128 H          81.0713   83.3700   29.5842 H       782      M_A    0.0000
   8129 H          79.3367   82.7650   29.7806 H       782      M_A    0.0000
   8130 H          80.6006   81.7483   31.7713 H       782      M_A    0.0000
   8131 H          81.4967   78.8982   31.8478 H       782      M_A    0.0000
   8132 H          80.1032   77.9079   31.2275 H       782      M_A    0.0000
   8133 C          82.5546   81.1121   30.7117 C.3     783      M_A    0.0000
   8134 C          82.9771   79.6072   31.1362 C.3     783      M_A    0.0000
   8135 C          81.9676   78.5206   30.4641 C.2     783      M_A    0.0000
   8136 N          82.2856   77.1234   30.7106 N.3     783      M_A    0.0000
   8137 O          80.9155   78.8144   29.7673 O.2     783      M_A    0.0000
   8138 H          82.9788   81.4056   29.6763 H       783      M_A    0.0000
   8139 H          82.9970   81.8749   31.4632 H       783      M_A    0.0000
   8140 H          82.9005   79.4719   32.2845 H       783      M_A    0.0000
   8141 H          83.3113   76.8628   30.8859 H       783      M_A    0.0000
   8142 H          81.7042   76.4117   30.1639 H       783      M_A    0.0000
   8143 C          84.5685   79.2494   30.6989 C.3     784      M_A    0.0000
   8144 C          85.4589   78.6978   31.9345 C.3     784      M_A    0.0000
   8145 C          86.3902   77.4513   31.4543 C.2     784      M_A    0.0000
   8146 N          87.2940   76.9124   32.4577 N.3     784      M_A    0.0000
   8147 O          86.3580   76.9086   30.2782 O.2     784      M_A    0.0000
   8148 H          84.5615   78.5129   29.8069 H       784      M_A    0.0000
   8149 H          85.0221   80.2351   30.2925 H       784      M_A    0.0000
   8150 H          84.7762   78.3003   32.7821 H       784      M_A    0.0000
   8151 H          87.6395   77.5707   33.2310 H       784      M_A    0.0000
   8152 H          87.9957   76.1855   32.1076 H       784      M_A    0.0000
   8153 C          86.4299   79.9064   32.6041 C.3     785      M_A    0.0000
   8154 C          88.0100   79.6763   32.3323 C.3     785      M_A    0.0000
   8155 C          88.7360   81.0860   31.9620 C.2     785      M_A    0.0000
   8156 N          90.1755   81.0251   31.7666 N.3     785      M_A    0.0000
   8157 O          88.1262   82.2190   31.8088 O.2     785      M_A    0.0000
   8158 H          86.0703   80.9378   32.2233 H       785      M_A    0.0000
   8159 H          86.2183   79.8977   33.7432 H       785      M_A    0.0000
   8160 H          88.1684   78.9690   31.4282 H       785      M_A    0.0000
   8161 H          90.7231   80.2620   32.2849 H       785      M_A    0.0000
   8162 H          90.6689   81.9672   31.6547 H       785      M_A    0.0000
   8163 C          88.7839   78.9703   33.6569 C.3     786      M_A    0.0000
   8164 C          90.0522   78.0538   33.2383 C.3     786      M_A    0.0000
   8165 C          91.1523   78.9390   32.4274 C.2     786      M_A    0.0000
   8166 N          92.3759   78.2456   32.0584 N.3     786      M_A    0.0000
   8167 O          90.9991   80.1770   32.0773 O.2     786      M_A    0.0000
   8168 H          89.0766   79.7968   34.4114 H       786      M_A    0.0000
   8169 H          87.9855   78.3222   34.1907 H       786      M_A    0.0000
   8170 H          89.7201   77.1991   32.5299 H       786      M_A    0.0000
   8171 H          92.6967   77.4269   32.6729 H       786      M_A    0.0000
   8172 H          93.1494   78.8574   31.6451 H       786      M_A    0.0000
   8173 C          90.7817   77.3322   34.5796 C.3     787      M_A    0.0000
   8174 C          91.2154   75.7938   34.3168 C.3     787      M_A    0.0000
   8175 C          92.6324   75.4678   35.0499 C.2     787      M_A    0.0000
   8176 N          93.0958   74.0933   34.9500 N.3     787      M_A    0.0000
   8177 O          93.3637   76.3360   35.6746 O.2     787      M_A    0.0000
   8178 H          91.6752   77.9820   34.9221 H       787      M_A    0.0000
   8179 H          90.0048   77.3839   35.4376 H       787      M_A    0.0000
   8180 H          91.3710   75.6029   33.1846 H       787      M_A    0.0000
   8181 H          92.3607   73.3198   34.8400 H       787      M_A    0.0000
   8182 H          93.9541   73.8490   35.5392 H       787      M_A    0.0000
   8183 C          90.0385   74.7050   34.8471 C.3     788      M_A    0.0000
   8184 C          89.8181   73.4622   33.8319 C.3     788      M_A    0.0000
   8185 C          89.3970   72.1217   34.6546 C.2     788      M_A    0.0000
   8186 N          89.0984   70.9502   33.8468 N.3     788      M_A    0.0000
   8187 O          89.3393   72.0287   35.9457 O.2     788      M_A    0.0000
   8188 H          90.3027   74.3500   35.9159 H       788      M_A    0.0000
   8189 H          89.0573   75.3128   34.9485 H       788      M_A    0.0000
   8190 H          90.8014   73.2169   33.2700 H       788      M_A    0.0000
   8191 H          88.7288   71.1046   32.8516 H       788      M_A    0.0000
   8192 H          88.6961   70.1123   34.3755 H       788      M_A    0.0000
   8193 C          88.6485   73.8007   32.6617 C.3     789      M_A    0.0000
   8194 C          87.5820   72.5980   32.4620 C.2     789      M_A    0.0000
   8195 C          86.2984   72.8056   33.4421 C.2     789      M_A    0.0000
   8196 N          85.2315   71.8274   33.3047 N.3     789      M_A    0.0000
   8197 O          86.1835   73.7436   34.3287 O.2     789      M_A    0.0000
   8198 H          88.1296   74.8015   32.9208 H       789      M_A    0.0000
   8199 H          89.2238   73.9884   31.6736 H       789      M_A    0.0000
   8200 H          88.0591   71.5804   32.7439 H       789      M_A    0.0000
   8201 H          85.1051   71.3492   32.3528 H       789      M_A    0.0000
   8202 H          84.3363   72.0374   33.8504 H       789      M_A    0.0000
   8203 C          66.1519   83.9647    7.4614 C.2     790      M_A    0.0000
   8204 C          66.8629   82.6120    7.6106 C.3     790      M_A    0.0000
   8205 C          67.9456   82.4477    6.5228 C.2     790      M_A    0.0000
   8206 N          68.7016   81.2977    6.5969 N.3     790      M_A    0.0000
   8207 O          68.1523   83.2410    5.6082 O.2     790      M_A    0.0000
   8208 H          65.5261   84.1981    8.3311 H       790      M_A    0.0000
   8209 H          65.4711   83.9383    6.5999 H       790      M_A    0.0000
   8210 H          66.1512   81.7859    7.4791 H       790      M_A    0.0000
   8211 H          68.8315   80.8689    7.5098 H       790      M_A    0.0000
   8212 H          69.4907   81.2485    5.9627 H       790      M_A    0.0000
   8213 C          67.5240   82.4382    9.0581 C.3     791      M_A    0.0000
   8214 C          68.2899   83.6845    9.5247 C.3     791      M_A    0.0000
   8215 C          69.6762   83.2913   10.0778 C.2     791      M_A    0.0000
   8216 N          70.4868   84.3366   10.4649 N.3     791      M_A    0.0000
   8217 O          70.0800   82.1395   10.2144 O.2     791      M_A    0.0000
   8218 H          66.7496   82.1396    9.7747 H       791      M_A    0.0000
   8219 H          68.2088   81.5830    8.9820 H       791      M_A    0.0000
   8220 H          67.7513   84.1848   10.3408 H       791      M_A    0.0000
   8221 H          70.3611   85.2348   10.0052 H       791      M_A    0.0000
   8222 H          71.4386   84.0880   10.7092 H       791      M_A    0.0000
   8223 C          68.4643   84.7567    8.3488 C.3     792      M_A    0.0000
   8224 C          69.1273   86.0606    8.8154 C.3     792      M_A    0.0000
   8225 C          70.3553   86.3862    7.9388 C.2     792      M_A    0.0000
   8226 N          70.9948   87.5746    8.2188 N.3     792      M_A    0.0000
   8227 O          70.8001   85.6627    7.0516 O.2     792      M_A    0.0000
   8228 H          69.0083   84.2940    7.5168 H       792      M_A    0.0000
   8229 H          67.4545   84.9633    7.9696 H       792      M_A    0.0000
   8230 H          69.4898   85.9609    9.8474 H       792      M_A    0.0000
   8231 H          70.4458   88.3296    8.6220 H       792      M_A    0.0000
   8232 H          71.7207   87.8479    7.5662 H       792      M_A    0.0000
   8233 C          68.1073   87.2941    8.7916 C.3     793      M_A    0.0000
   8234 C          67.4549   87.5633   10.1552 C.3     793      M_A    0.0000
   8235 C          68.1992   88.6940   10.8968 C.2     793      M_A    0.0000
   8236 N          67.6613   89.0738   12.1075 N.3     793      M_A    0.0000
   8237 O          69.2242   89.2421   10.4997 O.2     793      M_A    0.0000
   8238 H          68.6217   88.1799    8.4003 H       793      M_A    0.0000
   8239 H          67.3375   87.0416    8.0501 H       793      M_A    0.0000
   8240 H          67.5134   86.6712   10.7934 H       793      M_A    0.0000
   8241 H          66.6619   88.9489   12.2469 H       793      M_A    0.0000
   8242 H          68.0736   89.8960   12.5334 H       793      M_A    0.0000
   8243 C          65.9056   87.9410   10.0149 C.3     794      M_A    0.0000
   8244 C          64.9921   87.0764   10.8955 C.3     794      M_A    0.0000
   8245 C          63.5147   87.4780   10.6994 C.2     794      M_A    0.0000
   8246 N          62.5905   86.7225   11.3883 N.3     794      M_A    0.0000
   8247 O          63.1247   88.4161   10.0093 O.2     794      M_A    0.0000
   8248 H          65.7759   89.0113   10.2149 H       794      M_A    0.0000
   8249 H          65.6500   87.8001    8.9562 H       794      M_A    0.0000
   8250 H          65.2252   87.2278   11.9581 H       794      M_A    0.0000
   8251 H          62.8286   85.7583   11.6070 H       794      M_A    0.0000
   8252 H          61.6189   86.9039   11.1638 H       794      M_A    0.0000
   8253 C          65.1697   85.5146   10.5923 C.3     795      M_A    0.0000
   8254 C          63.8544   84.7284   10.6887 C.3     795      M_A    0.0000
   8255 C          62.7530   85.4128    9.8514 C.2     795      M_A    0.0000
   8256 N          61.5409   84.7585    9.8041 N.3     795      M_A    0.0000
   8257 O          62.8774   86.4840    9.2636 O.2     795      M_A    0.0000
   8258 H          65.6525   85.3895    9.6158 H       795      M_A    0.0000
   8259 H          65.8878   85.1379   11.3329 H       795      M_A    0.0000
   8260 H          63.4959   84.7026   11.7266 H       795      M_A    0.0000
   8261 H          61.5384   83.7477    9.9148 H       795      M_A    0.0000
   8262 H          60.8603   85.1397    9.1569 H       795      M_A    0.0000
   8263 C          64.0268   83.2099   10.2122 C.3     796      M_A    0.0000
   8264 C          62.8042   82.3364   10.5279 C.3     796      M_A    0.0000
   8265 C          61.8102   82.3510    9.3471 C.2     796      M_A    0.0000
   8266 N          60.7012   81.5446    9.4857 N.3     796      M_A    0.0000
   8267 O          61.9291   83.0347    8.3338 O.2     796      M_A    0.0000
   8268 H          64.2792   83.1933    9.1453 H       796      M_A    0.0000
   8269 H          64.9109   82.8223   10.7361 H       796      M_A    0.0000
   8270 H          62.2663   82.7276   11.4020 H       796      M_A    0.0000
   8271 H          60.7826   80.7157   10.0691 H       796      M_A    0.0000
   8272 H          60.1150   81.4576    8.6634 H       796      M_A    0.0000
   8273 C          63.2164   80.8269   10.8653 C.3     797      M_A    0.0000
   8274 C          62.4627   80.2518   12.0731 C.3     797      M_A    0.0000
   8275 C          61.4256   79.7045   11.4300 C.2     797      M_A    0.0000
   8276 N          60.5907   79.2029   12.1211 N.3     797      M_A    0.0000
   8277 O          61.2908   79.7076   10.3744 O.2     797      M_A    0.0000
   8278 H          63.0880   80.2090    9.9687 H       797      M_A    0.0000
   8279 H          64.2957   80.8414   11.0681 H       797      M_A    0.0000
   8280 H          62.1152   80.9605   12.6048 H       797      M_A    0.0000
   8281 H          60.8376   78.8860   12.9053 H       797      M_A    0.0000
   8282 H          59.9675   78.7507   11.6986 H       797      M_A    0.0000
   8283 C          63.0149   79.3226   12.9424 C.3     798      M_A    0.0000
   8284 C          62.8620   79.6497   14.2228 C.3     798      M_A    0.0000
   8285 C          61.6003   79.4381   14.6128 C.2     798      M_A    0.0000
   8286 N          61.3707   79.6443   15.7664 N.3     798      M_A    0.0000
   8287 O          60.8073   79.1283   13.9742 O.2     798      M_A    0.0000
   8288 H          62.6579   78.4635   12.7494 H       798      M_A    0.0000
   8289 H          63.9406   79.2742   12.7270 H       798      M_A    0.0000
   8290 H          63.0402   80.5753   14.3546 H       798      M_A    0.0000
   8291 H          62.0300   79.5503   16.3433 H       798      M_A    0.0000
   8292 H          60.5736   79.4031   16.0455 H       798      M_A    0.0000
   8293 C          63.7285   78.9461   15.0462 C.3     799      M_A    0.0000
   8294 C          64.6381   79.7209   15.6311 C.3     799      M_A    0.0000
   8295 C          64.0447   80.6521   16.3857 C.2     799      M_A    0.0000
   8296 N          64.7766   81.3647   17.0043 N.3     799      M_A    0.0000
   8297 O          62.9938   80.8075   16.4503 O.2     799      M_A    0.0000
   8298 H          63.2235   78.4495   15.6796 H       799      M_A    0.0000
   8299 H          64.1572   78.3018   14.4924 H       799      M_A    0.0000
   8300 H          65.1537   80.1824   14.9777 H       799      M_A    0.0000
   8301 H          65.5644   81.0468   17.2382 H       799      M_A    0.0000
   8302 H          64.3884   81.9021   17.5803 H       799      M_A    0.0000
   8303 C          65.5242   78.9879   16.4067 C.3     800      M_A    0.0000
   8304 C          66.7992   79.2412   16.1238 C.3     800      M_A    0.0000
   8305 C          66.9549   80.5216   15.7701 C.2     800      M_A    0.0000
   8306 N          68.0768   80.8687   15.5530 N.3     800      M_A    0.0000
   8307 O          66.1636   81.2233   15.6519 O.2     800      M_A    0.0000
   8308 H          65.3280   79.1313   17.3252 H       800      M_A    0.0000
   8309 H          65.3293   78.0716   16.2389 H       800      M_A    0.0000
   8310 H          67.0890   78.7139   15.3865 H       800      M_A    0.0000
   8311 H          68.7290   80.4455   15.9676 H       800      M_A    0.0000
   8312 H          68.1916   81.7303   15.4274 H       800      M_A    0.0000
   8313 C          67.6365   78.9471   17.1898 C.3     801      M_A    0.0000
   8314 C          68.9128   78.8270   16.8340 C.3     801      M_A    0.0000
   8315 C          69.5023   80.0267   16.7923 C.2     801      M_A    0.0000
   8316 N          70.6697   80.0245   16.5405 N.3     801      M_A    0.0000
   8317 O          69.0068   80.9564   16.9430 O.2     801      M_A    0.0000
   8318 H          67.5166   79.5991   17.8704 H       801      M_A    0.0000
   8319 H          67.3222   78.1272   17.5566 H       801      M_A    0.0000
   8320 H          68.9825   78.4546   15.9609 H       801      M_A    0.0000
   8321 H          71.1394   79.3120   16.7598 H       801      M_A    0.0000
   8322 H          71.0781   80.7979   16.6194 H       801      M_A    0.0000
   8323 C          69.6150   77.9922   17.6907 C.3     802      M_A    0.0000
   8324 C          70.8959   77.8589   17.3568 C.3     802      M_A    0.0000
   8325 C          71.6820   78.0912   18.4136 C.2     802      M_A    0.0000
   8326 N          72.8528   77.9382   18.2348 N.3     802      M_A    0.0000
   8327 O          71.3419   78.4153   19.3685 O.2     802      M_A    0.0000
   8328 H          69.5100   78.3008   18.5832 H       802      M_A    0.0000
   8329 H          69.1795   77.1469   17.6547 H       802      M_A    0.0000
   8330 H          71.1351   78.4943   16.6898 H       802      M_A    0.0000
   8331 H          73.1059   77.3626   17.6176 H       802      M_A    0.0000
   8332 H          73.3571   77.9845   18.9523 H       802      M_A    0.0000
   8333 C          71.1701   76.6015   16.8394 C.3     803      M_A    0.0000
   8334 C          72.2984   76.5608   16.1358 C.3     803      M_A    0.0000
   8335 C          72.1960   77.3236   15.0420 C.2     803      M_A    0.0000
   8336 N          73.1798   77.4040   14.3698 N.3     803      M_A    0.0000
   8337 O          71.3133   77.8300   14.7308 O.2     803      M_A    0.0000
   8338 H          71.1677   75.9658   17.5456 H       803      M_A    0.0000
   8339 H          70.4314   76.3758   16.2835 H       803      M_A    0.0000
   8340 H          72.4748   75.6740   15.8385 H       803      M_A    0.0000
   8341 H          73.9610   77.3067   14.7654 H       803      M_A    0.0000
   8342 H          73.1469   77.9877   13.7144 H       803      M_A    0.0000
   8343 C          73.3933   76.9652   16.8852 C.3     804      M_A    0.0000
   8344 C          74.4145   77.3765   16.1382 C.3     804      M_A    0.0000
   8345 C          74.1573   77.1746   14.8414 C.2     804      M_A    0.0000
   8346 N          74.9888   77.5660   14.0788 N.3     804      M_A    0.0000
   8347 O          73.2948   76.6821   14.4591 O.2     804      M_A    0.0000
   8348 H          73.1181   77.6280   17.5079 H       804      M_A    0.0000
   8349 H          73.6529   76.2115   17.4049 H       804      M_A    0.0000
   8350 H          75.2001   76.8806   16.3444 H       804      M_A    0.0000
   8351 H          75.4897   78.2475   14.3260 H       804      M_A    0.0000
   8352 H          74.7724   77.5319   13.2284 H       804      M_A    0.0000
   8353 C          74.7090   78.7150   16.3520 C.3     805      M_A    0.0000
   8354 C          74.3616   79.4957   15.3322 C.3     805      M_A    0.0000
   8355 C          73.6104   78.8174   14.4579 C.2     805      M_A    0.0000
   8356 N          73.1943   79.4461   13.5318 N.3     805      M_A    0.0000
   8357 O          73.3855   77.7792   14.5220 O.2     805      M_A    0.0000
   8358 H          74.3106   78.9962   17.1674 H       805      M_A    0.0000
   8359 H          75.6491   78.7614   16.4919 H       805      M_A    0.0000
   8360 H          75.1333   79.7928   14.8611 H       805      M_A    0.0000
   8361 H          73.0666   80.3109   13.6420 H       805      M_A    0.0000
   8362 H          72.6152   79.0307   13.0185 H       805      M_A    0.0000
   8363 C          73.6794   80.6277   15.7530 C.3     806      M_A    0.0000
   8364 C          73.9836   81.7135   15.0470 C.3     806      M_A    0.0000
   8365 C          73.1869   82.7322   15.3881 C.2     806      M_A    0.0000
   8366 N          73.4175   83.7747   14.8533 N.3     806      M_A    0.0000
   8367 O          72.3712   82.6685   16.0687 O.2     806      M_A    0.0000
   8368 H          72.7461   80.4498   15.7483 H       806      M_A    0.0000
   8369 H          73.9153   80.7563   16.6660 H       806      M_A    0.0000
   8370 H          73.8487   81.5565   14.1181 H       806      M_A    0.0000
   8371 H          74.2440   83.9324   14.5919 H       806      M_A    0.0000
   8372 H          72.9676   84.4658   15.1554 H       806      M_A    0.0000
   8373 C          75.3101   82.0847   15.2097 C.3     807      M_A    0.0000
   8374 C          75.4529   83.2639   15.8089 C.3     807      M_A    0.0000
   8375 C          74.3434   83.5836   16.4838 C.2     807      M_A    0.0000
   8376 N          74.3895   84.5999   17.1093 N.3     807      M_A    0.0000
   8377 O          73.4420   83.0178   16.4807 O.2     807      M_A    0.0000
   8378 H          75.7739   81.3938   15.6683 H       807      M_A    0.0000
   8379 H          75.6867   82.1156   14.3363 H       807      M_A    0.0000
   8380 H          75.5922   83.9509   15.1652 H       807      M_A    0.0000
   8381 H          75.1750   84.8705   17.4027 H       807      M_A    0.0000
   8382 H          73.7043   84.7544   17.6364 H       807      M_A    0.0000
   8383 C          76.5422   83.2822   16.6674 C.3     808      M_A    0.0000
   8384 C          77.5188   84.0861   16.2552 C.3     808      M_A    0.0000
   8385 C          77.9797   84.8226   17.2720 C.2     808      M_A    0.0000
   8386 N          78.9026   85.5375   17.0203 N.3     808      M_A    0.0000
   8387 O          77.5737   84.8279   18.2557 O.2     808      M_A    0.0000
   8388 H          76.2462   83.5017   17.5431 H       808      M_A    0.0000
   8389 H          76.8574   82.3856   16.7163 H       808      M_A    0.0000
   8390 H          77.1959   84.6941   15.5980 H       808      M_A    0.0000
   8391 H          79.4465   85.2983   16.3697 H       808      M_A    0.0000
   8392 H          79.2733   85.9379   17.7085 H       808      M_A    0.0000
   8393 C          78.5648   83.3804   15.6793 C.3     809      M_A    0.0000
   8394 C          78.4980   83.3384   14.3512 C.2     809      M_A    0.0000
   8395 C          79.1691   84.3639   13.8159 C.2     809      M_A    0.0000
   8396 N          79.2218   84.3854   12.6230 N.3     809      M_A    0.0000
   8397 O          79.6262   85.1501   14.3687 O.2     809      M_A    0.0000
   8398 H          79.3897   83.7410   15.9830 H       809      M_A    0.0000
   8399 H          78.5191   82.4991   16.0355 H       809      M_A    0.0000
   8400 H          77.5955   83.4167   14.0595 H       809      M_A    0.0000
   8401 H          79.1764   83.6180   12.1924 H       809      M_A    0.0000
   8402 H          79.7509   84.9944   12.2758 H       809      M_A    0.0000
   8403 C          85.9682   69.7780    8.6255 C.2     810      M_A    0.0000
   8404 C          84.5498   69.6283    8.4014 C.3     810      M_A    0.0000
   8405 C          84.1801   68.2248    8.4052 C.2     810      M_A    0.0000
   8406 N          82.9150   67.9737    8.2776 N.3     810      M_A    0.0000
   8407 O          84.9223   67.3438    8.4881 O.2     810      M_A    0.0000
   8408 H          86.2075   69.7370    9.6275 H       810      M_A    0.0000
   8409 H          86.2816   70.7060    8.2980 H       810      M_A    0.0000
   8410 H          84.2872   70.0048    7.4762 H       810      M_A    0.0000
   8411 H          82.2928   68.6310    8.5861 H       810      M_A    0.0000
   8412 H          82.6599   67.0633    8.3976 H       810      M_A    0.0000
   8413 C          83.7353   70.3686    9.4282 C.3     811      M_A    0.0000
   8414 C          84.4658   71.4366   10.0688 C.3     811      M_A    0.0000
   8415 C          84.7444   72.5009    9.1222 C.2     811      M_A    0.0000
   8416 N          85.3415   73.5446    9.6056 N.3     811      M_A    0.0000
   8417 O          84.4966   72.4670    7.9946 O.2     811      M_A    0.0000
   8418 H          82.8636   70.7044    8.9917 H       811      M_A    0.0000
   8419 H          83.4480   69.6669   10.1293 H       811      M_A    0.0000
   8420 H          85.3778   71.0959   10.4137 H       811      M_A    0.0000
   8421 H          85.2072   73.7519   10.5293 H       811      M_A    0.0000
   8422 H          85.4186   74.2880    9.0142 H       811      M_A    0.0000
   8423 C          83.7247   71.9951   11.2540 C.3     812      M_A    0.0000
   8424 C          84.1047   73.3511   11.5725 C.3     812      M_A    0.0000
   8425 C          83.6703   74.2595   10.5271 C.2     812      M_A    0.0000
   8426 N          83.9015   75.5168   10.7396 N.3     812      M_A    0.0000
   8427 O          83.1687   73.9396    9.5372 O.2     812      M_A    0.0000
   8428 H          82.7103   71.9059   11.0925 H       812      M_A    0.0000
   8429 H          83.9401   71.3719   12.0489 H       812      M_A    0.0000
   8430 H          85.1322   73.4347   11.6342 H       812      M_A    0.0000
   8431 H          83.9446   75.8192   11.6457 H       812      M_A    0.0000
   8432 H          83.5136   76.1205   10.1123 H       812      M_A    0.0000
   8433 C          83.5438   73.7981   12.8960 C.3     813      M_A    0.0000
   8434 C          82.2545   74.4373   12.7786 C.3     813      M_A    0.0000
   8435 C          82.0724   74.9723   11.4417 C.2     813      M_A    0.0000
   8436 N          80.9193   75.5133   11.2022 N.3     813      M_A    0.0000
   8437 O          82.8746   74.9679   10.6109 O.2     813      M_A    0.0000
   8438 H          83.5195   72.9952   13.5425 H       813      M_A    0.0000
   8439 H          84.2311   74.4592   13.2923 H       813      M_A    0.0000
   8440 H          82.1840   75.2337   13.4323 H       813      M_A    0.0000
   8441 H          80.1636   75.1984   11.6963 H       813      M_A    0.0000
   8442 H          80.7574   75.7576   10.2953 H       813      M_A    0.0000
   8443 C          81.1263   73.4956   13.1045 C.3     814      M_A    0.0000
   8444 C          80.0218   74.1435   13.7714 C.3     814      M_A    0.0000
   8445 C          79.0022   74.5257   12.8118 C.2     814      M_A    0.0000
   8446 N          77.9307   75.0593   13.3086 N.3     814      M_A    0.0000
   8447 O          79.0931   74.4098   11.6663 O.2     814      M_A    0.0000
   8448 H          80.8282   73.0128   12.2436 H       814      M_A    0.0000
   8449 H          81.5273   72.7646   13.7139 H       814      M_A    0.0000
   8450 H          80.3369   75.0109   14.2353 H       814      M_A    0.0000
   8451 H          77.6801   74.8186   14.1995 H       814      M_A    0.0000
   8452 H          77.2162   75.2015   12.6941 H       814      M_A    0.0000
   8453 C          79.4132   73.2688   14.8346 C.3     815      M_A    0.0000
   8454 C          78.1077   73.7166   15.2584 C.3     815      M_A    0.0000
   8455 C          77.0678   73.0107   14.5324 C.2     815      M_A    0.0000
   8456 N          75.8500   73.2869   14.8793 N.3     815      M_A    0.0000
   8457 O          77.2513   72.2593   13.6748 O.2     815      M_A    0.0000
   8458 H          79.3979   72.2927   14.5028 H       815      M_A    0.0000
   8459 H          80.0687   73.2857   15.6324 H       815      M_A    0.0000
   8460 H          77.9856   74.7218   15.0549 H       815      M_A    0.0000
   8461 H          75.6926   73.5743   15.7776 H       815      M_A    0.0000
   8462 H          75.1744   72.7406   14.4875 H       815      M_A    0.0000
   8463 C          77.9025   73.5363   16.7387 C.3     816      M_A    0.0000
   8464 C          76.7856   74.2933   17.2526 C.3     816      M_A    0.0000
   8465 C          75.5943   73.4662   17.3094 C.2     816      M_A    0.0000
   8466 N          74.5420   74.0259   17.8183 N.3     816      M_A    0.0000
   8467 O          75.5210   72.3816   16.9194 O.2     816      M_A    0.0000
   8468 H          77.8171   72.5306   16.9492 H       816      M_A    0.0000
   8469 H          78.7775   73.8464   17.1912 H       816      M_A    0.0000
   8470 H          76.5691   75.0881   16.6296 H       816      M_A    0.0000
   8471 H          74.6695   74.7223   18.4611 H       816      M_A    0.0000
   8472 H          73.7966   73.4501   17.9637 H       816      M_A    0.0000
   8473 C          77.0705   74.8641   18.6160 C.3     817      M_A    0.0000
   8474 C          76.2938   76.0452   18.9097 C.3     817      M_A    0.0000
   8475 C          75.3252   75.7695   19.9549 C.2     817      M_A    0.0000
   8476 N          74.6142   76.7797   20.3466 N.3     817      M_A    0.0000
   8477 O          75.1374   74.7328   20.4281 O.2     817      M_A    0.0000
   8478 H          76.9383   74.1283   19.3260 H       817      M_A    0.0000
   8479 H          78.0778   75.0914   18.6290 H       817      M_A    0.0000
   8480 H          75.7599   76.3441   18.0777 H       817      M_A    0.0000
   8481 H          74.9930   77.6541   20.2669 H       817      M_A    0.0000
   8482 H          74.0640   76.6272   21.1098 H       817      M_A    0.0000
   8483 C          77.1626   77.2045   19.3183 C.3     818      M_A    0.0000
   8484 C          77.8398   77.8256   18.2047 C.3     818      M_A    0.0000
   8485 C          77.1223   77.5730   16.9686 C.2     818      M_A    0.0000
   8486 N          77.6064   78.1403   15.9087 N.3     818      M_A    0.0000
   8487 O          76.1896   76.8992   16.8692 O.2     818      M_A    0.0000
   8488 H          76.5963   77.8810   19.8521 H       818      M_A    0.0000
   8489 H          77.8539   76.8260   19.9857 H       818      M_A    0.0000
   8490 H          78.7860   77.4282   18.0886 H       818      M_A    0.0000
   8491 H          78.0947   78.9551   16.0179 H       818      M_A    0.0000
   8492 H          77.0722   78.0717   15.1223 H       818      M_A    0.0000
   8493 C          78.0036   79.3091   18.4003 C.3     819      M_A    0.0000
   8494 C          79.2581   79.8127   17.8934 C.3     819      M_A    0.0000
   8495 C          79.1375   80.1560   16.4883 C.2     819      M_A    0.0000
   8496 N          80.1892   80.6815   15.9431 N.3     819      M_A    0.0000
   8497 O          78.1997   79.9736   15.8394 O.2     819      M_A    0.0000
   8498 H          77.1955   79.7971   17.9854 H       819      M_A    0.0000
   8499 H          77.9416   79.4747   19.4178 H       819      M_A    0.0000
   8500 H          79.9934   79.0907   17.9634 H       819      M_A    0.0000
   8501 H          80.7886   81.1724   16.5036 H       819      M_A    0.0000
   8502 H          80.0737   81.0138   15.0573 H       819      M_A    0.0000
   8503 C          79.7391   81.0109   18.6672 C.3     820      M_A    0.0000
   8504 C          79.8006   82.2132   17.8702 C.2     820      M_A    0.0000
   8505 C          78.5489   82.9431   17.9540 C.2     820      M_A    0.0000
   8506 N          78.5132   84.0768   17.3271 N.3     820      M_A    0.0000
   8507 O          77.6036   82.5768   18.5073 O.2     820      M_A    0.0000
   8508 H          79.1501   81.1324   19.5048 H       820      M_A    0.0000
   8509 H          80.6806   80.7700   19.0165 H       820      M_A    0.0000
   8510 H          79.9459   81.9809   16.8744 H       820      M_A    0.0000
   8511 H          79.3347   84.5520   17.2102 H       820      M_A    0.0000
   8512 H          77.7370   84.6088   17.4782 H       820      M_A    0.0000
   8513 C          64.1862   87.2966   34.8880 C.2     821      M_A    0.0000
   8514 C          63.4709   85.9849   34.5547 C.3     821      M_A    0.0000
   8515 C          62.5160   86.1794   33.3637 C.2     821      M_A    0.0000
   8516 N          61.8665   85.0502   32.9265 N.3     821      M_A    0.0000
   8517 O          62.2864   87.2493   32.8143 O.2     821      M_A    0.0000
   8518 H          64.8215   87.6369   34.0661 H       821      M_A    0.0000
   8519 H          64.8546   87.1519   35.7431 H       821      M_A    0.0000
   8520 H          62.8598   85.6545   35.4012 H       821      M_A    0.0000
   8521 H          62.3188   84.1543   33.0700 H       821      M_A    0.0000
   8522 H          61.3383   85.1516   32.0710 H       821      M_A    0.0000
   8523 C          64.4994   84.8083   34.2308 C.3     822      M_A    0.0000
   8524 C          65.6453   84.7164   35.2415 C.3     822      M_A    0.0000
   8525 C          66.0699   83.2510   35.4430 C.2     822      M_A    0.0000
   8526 N          67.1408   83.0475   36.2794 N.3     822      M_A    0.0000
   8527 O          65.5141   82.2827   34.9401 O.2     822      M_A    0.0000
   8528 H          63.9521   83.8658   34.1451 H       822      M_A    0.0000
   8529 H          64.8968   85.0157   33.2318 H       822      M_A    0.0000
   8530 H          65.3263   85.0920   36.2194 H       822      M_A    0.0000
   8531 H          67.8278   83.7884   36.3632 H       822      M_A    0.0000
   8532 H          67.4970   82.1025   36.3139 H       822      M_A    0.0000
   8533 C          66.9081   85.5839   34.7946 C.3     823      M_A    0.0000
   8534 C          68.2388   85.0014   35.2776 C.3     823      M_A    0.0000
   8535 C          68.5137   83.6490   34.5969 C.2     823      M_A    0.0000
   8536 N          69.7174   83.0597   34.9002 N.3     823      M_A    0.0000
   8537 O          67.7398   83.0704   33.8447 O.2     823      M_A    0.0000
   8538 H          66.8882   85.7152   33.7095 H       823      M_A    0.0000
   8539 H          66.7598   86.5819   35.2198 H       823      M_A    0.0000
   8540 H          68.2074   84.8137   36.3559 H       823      M_A    0.0000
   8541 H          70.4913   83.6617   35.1583 H       823      M_A    0.0000
   8542 H          69.9518   82.2380   34.3607 H       823      M_A    0.0000
   8543 C          69.4590   85.9946   35.0093 C.3     824      M_A    0.0000
   8544 C          70.1783   86.4229   36.2908 C.3     824      M_A    0.0000
   8545 C          70.5954   85.1904   37.1123 C.2     824      M_A    0.0000
   8546 N          71.3132   85.4476   38.2554 N.3     824      M_A    0.0000
   8547 O          70.3143   84.0317   36.8333 O.2     824      M_A    0.0000
   8548 H          70.1427   85.5377   34.2889 H       824      M_A    0.0000
   8549 H          69.0358   86.8705   34.5066 H       824      M_A    0.0000
   8550 H          69.5122   87.0170   36.9252 H       824      M_A    0.0000
   8551 H          71.8787   86.2885   38.2840 H       824      M_A    0.0000
   8552 H          71.6927   84.6381   38.7264 H       824      M_A    0.0000
   8553 C          71.4608   87.3223   35.9848 C.3     825      M_A    0.0000
   8554 C          71.4030   88.6985   36.6525 C.3     825      M_A    0.0000
   8555 C          72.7399   89.0181   37.3445 C.2     825      M_A    0.0000
   8556 N          72.8327   90.2613   37.9224 N.3     825      M_A    0.0000
   8557 O          73.6879   88.2481   37.4319 O.2     825      M_A    0.0000
   8558 H          72.3621   86.7696   36.2627 H       825      M_A    0.0000
   8559 H          71.5025   87.4354   34.8965 H       825      M_A    0.0000
   8560 H          70.6311   88.7168   37.4290 H       825      M_A    0.0000
   8561 H          72.2744   91.0117   37.5312 H       825      M_A    0.0000
   8562 H          73.7477   90.5180   38.2660 H       825      M_A    0.0000
   8563 C          71.0487   89.8544   35.6107 C.3     826      M_A    0.0000
   8564 C          69.6110   89.7751   35.0909 C.3     826      M_A    0.0000
   8565 C          68.6662   90.5883   35.9931 C.2     826      M_A    0.0000
   8566 N          67.3551   90.6491   35.5865 N.3     826      M_A    0.0000
   8567 O          68.9942   91.1463   37.0326 O.2     826      M_A    0.0000
   8568 H          71.2678   90.8254   36.0628 H       826      M_A    0.0000
   8569 H          71.7539   89.7447   34.7803 H       826      M_A    0.0000
   8570 H          69.2532   88.7403   35.1069 H       826      M_A    0.0000
   8571 H          67.1590   90.5653   34.5954 H       826      M_A    0.0000
   8572 H          66.7635   91.2820   36.1067 H       826      M_A    0.0000
   8573 C          69.4902   90.2904   33.5853 C.3     827      M_A    0.0000
   8574 C          68.4005   89.5686   32.7886 C.3     827      M_A    0.0000
   8575 C          67.4850   90.5853   32.0842 C.2     827      M_A    0.0000
   8576 N          66.5067   90.0531   31.2793 N.3     827      M_A    0.0000
   8577 O          67.5552   91.8011   32.2123 O.2     827      M_A    0.0000
   8578 H          69.3466   91.3742   33.5867 H       827      M_A    0.0000
   8579 H          70.4680   90.1184   33.1235 H       827      M_A    0.0000
   8580 H          67.7645   88.9773   33.4557 H       827      M_A    0.0000
   8581 H          66.6790   89.1492   30.8538 H       827      M_A    0.0000
   8582 H          65.9881   90.7174   30.7218 H       827      M_A    0.0000
   8583 C          69.0138   88.5632   31.7115 C.3     828      M_A    0.0000
   8584 C          67.9465   87.8647   30.8651 C.3     828      M_A    0.0000
   8585 C          67.7313   88.6178   29.5405 C.2     828      M_A    0.0000
   8586 N          66.8426   88.0444   28.6633 N.3     828      M_A    0.0000
   8587 O          68.2668   89.6770   29.2390 O.2     828      M_A    0.0000
   8588 H          69.7411   89.0973   31.0944 H       828      M_A    0.0000
   8589 H          69.5878   87.8218   32.2769 H       828      M_A    0.0000
   8590 H          66.9842   87.8597   31.3876 H       828      M_A    0.0000
   8591 H          66.7201   87.0387   28.6980 H       828      M_A    0.0000
   8592 H          66.7949   88.4686   27.7474 H       828      M_A    0.0000
   8593 C          68.3242   86.3440   30.5620 C.3     829      M_A    0.0000
   8594 C          67.1771   85.5552   29.9254 C.3     829      M_A    0.0000
   8595 C          66.5228   86.3718   28.7971 C.2     829      M_A    0.0000
   8596 N          65.5213   85.7375   28.1022 N.3     829      M_A    0.0000
   8597 O          66.8123   87.5252   28.5053 O.2     829      M_A    0.0000
   8598 H          69.2306   86.3134   29.9517 H       829      M_A    0.0000
   8599 H          68.5961   85.8985   31.5246 H       829      M_A    0.0000
   8600 H          66.3951   85.3504   30.6640 H       829      M_A    0.0000
   8601 H          65.5494   84.7258   28.0425 H       829      M_A    0.0000
   8602 H          65.1785   86.2236   27.2853 H       829      M_A    0.0000
   8603 C          67.6643   84.1466   29.3547 C.3     830      M_A    0.0000
   8604 C          67.2470   82.9650   30.2338 C.3     830      M_A    0.0000
   8605 C          66.8606   81.7560   29.3637 C.2     830      M_A    0.0000
   8606 N          66.5330   80.6085   30.0448 N.3     830      M_A    0.0000
   8607 O          66.8038   81.7598   28.1406 O.2     830      M_A    0.0000
   8608 H          67.3138   84.0351   28.3252 H       830      M_A    0.0000
   8609 H          68.7563   84.2018   29.2949 H       830      M_A    0.0000
   8610 H          66.3652   83.2222   30.8300 H       830      M_A    0.0000
   8611 H          66.9477   80.4614   30.9582 H       830      M_A    0.0000
   8612 H          66.4013   79.7836   29.4763 H       830      M_A    0.0000
   8613 C          68.3982   82.5440   31.2559 C.3     831      M_A    0.0000
   8614 C          69.7327   82.2451   30.5682 C.3     831      M_A    0.0000
   8615 C          70.9061   82.7510   31.4258 C.2     831      M_A    0.0000
   8616 N          72.1628   82.4768   30.9425 N.3     831      M_A    0.0000
   8617 O          70.7933   83.3853   32.4671 O.2     831      M_A    0.0000
   8618 H          68.4970   83.3157   32.0239 H       831      M_A    0.0000
   8619 H          68.0355   81.6503   31.7742 H       831      M_A    0.0000
   8620 H          69.7946   82.7654   29.6066 H       831      M_A    0.0000
   8621 H          72.2807   81.6560   30.3593 H       831      M_A    0.0000
   8622 H          72.9291   82.6971   31.5633 H       831      M_A    0.0000
   8623 C          69.9174   80.6878   30.2720 C.3     832      M_A    0.0000
   8624 C          71.3853   80.2610   30.1921 C.3     832      M_A    0.0000
   8625 C          72.2412   81.0900   31.1658 C.2     832      M_A    0.0000
   8626 N          73.5706   80.7490   31.2339 N.3     832      M_A    0.0000
   8627 O          71.8299   82.0228   31.8442 O.2     832      M_A    0.0000
   8628 H          69.3634   80.1118   31.0180 H       832      M_A    0.0000
   8629 H          69.4192   80.4970   29.3158 H       832      M_A    0.0000
   8630 H          71.7834   80.4399   29.1878 H       832      M_A    0.0000
   8631 H          73.8282   79.7910   31.0249 H       832      M_A    0.0000
   8632 H          74.1041   81.2066   31.9599 H       832      M_A    0.0000
   8633 C          71.5741   78.7069   30.5019 C.3     833      M_A    0.0000
   8634 C          72.9055   78.1497   29.9920 C.3     833      M_A    0.0000
   8635 C          74.0716   78.6694   30.8512 C.2     833      M_A    0.0000
   8636 N          75.3153   78.1808   30.5312 N.3     833      M_A    0.0000
   8637 O          73.9672   79.4856   31.7580 O.2     833      M_A    0.0000
   8638 H          71.4417   78.5352   31.5734 H       833      M_A    0.0000
   8639 H          70.7407   78.1935   30.0112 H       833      M_A    0.0000
   8640 H          73.0938   78.4828   28.9660 H       833      M_A    0.0000
   8641 H          75.3717   77.2623   30.1058 H       833      M_A    0.0000
   8642 H          76.0595   78.4233   31.1703 H       833      M_A    0.0000
   8643 C          72.9199   76.5538   29.9776 C.3     834      M_A    0.0000
   8644 C          74.0012   75.9707   29.0645 C.3     834      M_A    0.0000
   8645 C          73.9965   74.4335   29.1373 C.2     834      M_A    0.0000
   8646 N          74.8815   73.7920   28.3047 N.3     834      M_A    0.0000
   8647 O          73.2931   73.7675   29.8862 O.2     834      M_A    0.0000
   8648 H          73.0076   76.1858   31.0032 H       834      M_A    0.0000
   8649 H          71.9290   76.2420   29.6313 H       834      M_A    0.0000
   8650 H          74.9946   76.3009   29.3857 H       834      M_A    0.0000
   8651 H          75.1478   74.2559   27.4435 H       834      M_A    0.0000
   8652 H          74.7922   72.7864   28.2609 H       834      M_A    0.0000
   8653 C          73.8191   76.4362   27.5488 C.3     835      M_A    0.0000
   8654 C          75.0935   77.0327   26.9460 C.3     835      M_A    0.0000
   8655 C          75.8901   75.9526   26.1930 C.2     835      M_A    0.0000
   8656 N          77.0237   76.3852   25.5481 N.3     835      M_A    0.0000
   8657 O          75.5998   74.7636   26.1548 O.2     835      M_A    0.0000
   8658 H          73.4402   75.5979   26.9583 H       835      M_A    0.0000
   8659 H          73.0204   77.1852   27.5526 H       835      M_A    0.0000
   8660 H          75.7480   77.4179   27.7349 H       835      M_A    0.0000
   8661 H          77.0541   77.3478   25.2315 H       835      M_A    0.0000
   8662 H          77.4764   75.7052   24.9534 H       835      M_A    0.0000
   8663 C          74.7774   78.2492   25.9625 C.3     836      M_A    0.0000
   8664 C          74.4755   79.5559   26.7004 C.3     836      M_A    0.0000
   8665 C          75.7518   80.1115   27.3564 C.2     836      M_A    0.0000
   8666 N          75.6197   81.3225   27.9923 N.3     836      M_A    0.0000
   8667 O          76.8385   79.5473   27.3689 O.2     836      M_A    0.0000
   8668 H          75.6010   78.3607   25.2523 H       836      M_A    0.0000
   8669 H          73.9091   77.9450   25.3688 H       836      M_A    0.0000
   8670 H          73.7532   79.3845   27.5055 H       836      M_A    0.0000
   8671 H          74.9039   81.9593   27.6609 H       836      M_A    0.0000
   8672 H          76.4795   81.7453   28.3134 H       836      M_A    0.0000
   8673 C          73.8467   80.6580   25.7324 C.3     837      M_A    0.0000
   8674 C          73.4168   81.9295   26.4683 C.3     837      M_A    0.0000
   8675 C          74.4746   82.3326   27.5107 C.2     837      M_A    0.0000
   8676 N          74.2311   83.5023   28.1893 N.3     837      M_A    0.0000
   8677 O          75.4761   81.6829   27.7833 O.2     837      M_A    0.0000
   8678 H          74.5516   80.8709   24.9243 H       837      M_A    0.0000
   8679 H          72.9791   80.1887   25.2571 H       837      M_A    0.0000
   8680 H          72.4820   81.7608   27.0131 H       837      M_A    0.0000
   8681 H          73.6811   84.2168   27.7257 H       837      M_A    0.0000
   8682 H          74.9818   83.8306   28.7808 H       837      M_A    0.0000
   8683 C          73.1627   83.1443   25.4649 C.3     838      M_A    0.0000
   8684 C          71.7842   83.0973   24.8009 C.3     838      M_A    0.0000
   8685 C          71.2175   84.5182   24.6345 C.2     838      M_A    0.0000
   8686 N          70.0100   84.6089   23.9849 N.3     838      M_A    0.0000
   8687 O          71.7465   85.5396   25.0543 O.2     838      M_A    0.0000
   8688 H          73.3315   84.0872   25.9919 H       838      M_A    0.0000
   8689 H          73.9474   83.0819   24.7038 H       838      M_A    0.0000
   8690 H          71.0754   82.5437   25.4256 H       838      M_A    0.0000
   8691 H          69.7770   83.8900   23.3092 H       838      M_A    0.0000
   8692 H          69.6992   85.5452   23.7658 H       838      M_A    0.0000
   8693 C          71.8285   82.3680   23.3820 C.3     839      M_A    0.0000
   8694 C          71.7775   83.3433   22.2031 C.3     839      M_A    0.0000
   8695 C          71.2247   84.7064   22.6550 C.2     839      M_A    0.0000
   8696 N          71.1964   85.6891   21.6950 N.3     839      M_A    0.0000
   8697 O          70.7976   84.9553   23.7753 O.2     839      M_A    0.0000
   8698 H          72.7068   81.7187   23.3387 H       839      M_A    0.0000
   8699 H          70.9609   81.7006   23.3537 H       839      M_A    0.0000
   8700 H          71.1045   82.9698   21.4242 H       839      M_A    0.0000
   8701 H          71.8784   85.6439   20.9463 H       839      M_A    0.0000
   8702 H          70.9521   86.6138   22.0211 H       839      M_A    0.0000
   8703 C          73.2106   83.5425   21.5294 C.3     840      M_A    0.0000
   8704 C          73.2351   83.1652   20.0461 C.2     840      M_A    0.0000
   8705 C          72.9186   84.3920   19.1727 C.2     840      M_A    0.0000
   8706 N          72.9796   84.1919   17.8147 N.3     840      M_A    0.0000
   8707 O          72.6006   85.4951   19.5989 O.2     840      M_A    0.0000
   8708 H          73.5467   84.5693   21.6965 H       840      M_A    0.0000
   8709 H          73.9032   82.9057   22.0894 H       840      M_A    0.0000
   8710 H          72.4690   82.4138   19.8280 H       840      M_A    0.0000
   8711 H          73.6017   83.4711   17.4664 H       840      M_A    0.0000
   8712 H          72.8951   85.0222   17.2448 H       840      M_A    0.0000
   8713 C          56.5446   87.7812   35.0335 C.2     841      M_A    0.0000
   8714 C          57.7982   87.1295   36.5621 C.3     841      M_A    0.0000
   8715 C          56.8362   85.6873   37.7338 C.2     841      M_A    0.0000
   8716 N          57.8636   84.9291   39.0979 N.3     841      M_A    0.0000
   8717 O          55.2504   85.2125   37.5545 O.2     841      M_A    0.0000
   8718 H          55.2261   87.0954   35.0640 H       841      M_A    0.0000
   8719 H          57.1430   87.4545   33.7099 H       841      M_A    0.0000
   8720 H          58.1485   88.2584   37.4676 H       841      M_A    0.0000
   8721 H          59.2303   84.8740   38.9259 H       841      M_A    0.0000
   8722 H          57.2913   83.8670   39.7554 H       841      M_A    0.0000
   8723 C          59.6619   86.3228   35.7972 C.3     842      M_A    0.0000
   8724 C          59.6417   84.2493   35.6159 C.3     842      M_A    0.0000
   8725 C          60.2913   83.3522   37.3913 C.2     842      M_A    0.0000
   8726 N          60.2422   81.4847   37.4252 N.3     842      M_A    0.0000
   8727 O          60.8643   84.1721   38.7224 O.2     842      M_A    0.0000
   8728 H          59.9927   86.9911   34.5112 H       842      M_A    0.0000
   8729 H          60.7210   86.7398   36.7570 H       842      M_A    0.0000
   8730 H          60.5755   83.8094   34.5428 H       842      M_A    0.0000
   8731 H          59.3113   80.8463   36.6338 H       842      M_A    0.0000
   8732 H          60.5055   80.9033   38.6420 H       842      M_A    0.0000
   8733 C          57.6732   83.4974   35.0969 C.3     843      M_A    0.0000
   8734 C          57.5289   81.4251   35.2288 C.3     843      M_A    0.0000
   8735 C          55.6699   80.7737   34.5228 C.2     843      M_A    0.0000
   8736 N          55.4161   78.9230   34.4858 N.3     843      M_A    0.0000
   8737 O          54.4280   81.7717   34.0392 O.2     843      M_A    0.0000
   8738 H          56.6525   84.1812   35.9337 H       843      M_A    0.0000
   8739 H          57.4149   83.9380   33.6983 H       843      M_A    0.0000
   8740 H          57.6313   80.9833   36.6470 H       843      M_A    0.0000
   8741 H          56.5264   78.1192   34.3391 H       843      M_A    0.0000
   8742 H          54.2678   78.4908   33.8672 H       843      M_A    0.0000
   8743 C          59.1150   80.4280   34.1334 C.3     844      M_A    0.0000
   8744 C          59.1334   78.3661   34.4176 C.3     844      M_A    0.0000
   8745 C          58.0374   77.4093   32.9137 C.2     844      M_A    0.0000
   8746 N          58.0341   75.5418   32.9713 N.3     844      M_A    0.0000
   8747 O          57.1661   78.1848   31.7255 O.2     844      M_A    0.0000
   8748 H          59.0189   80.7912   32.6951 H       844      M_A    0.0000
   8749 H          60.3919   81.0205   34.6186 H       844      M_A    0.0000
   8750 H          58.4903   78.0114   35.7129 H       844      M_A    0.0000
   8751 H          59.1197   74.9089   33.5382 H       844      M_A    0.0000
   8752 H          57.4596   74.9129   31.8931 H       844      M_A    0.0000
   8753 C          61.1516   77.5700   34.4677 C.3     845      M_A    0.0000
   8754 C          61.4581   76.0329   33.0980 C.3     845      M_A    0.0000
   8755 C          60.5768   76.5033   31.2594 C.2     845      M_A    0.0000
   8756 N          60.8431   75.2628   29.8878 N.3     845      M_A    0.0000
   8757 O          59.6523   77.8555   30.9607 O.2     845      M_A    0.0000
   8758 H          62.1205   78.6821   34.2829 H       845      M_A    0.0000
   8759 H          61.3668   77.0683   35.8529 H       845      M_A    0.0000
   8760 H          60.8201   74.7743   33.5735 H       845      M_A    0.0000
   8761 H          61.9846   74.4907   29.9246 H       845      M_A    0.0000
   8762 H          60.4118   75.6496   28.6419 H       845      M_A    0.0000
   8763 C          63.5669   75.6098   32.8087 C.3     846      M_A    0.0000
   8764 C          64.0893   73.6639   33.3315 C.3     846      M_A    0.0000
   8765 C          62.7936   72.2901   32.4301 C.2     846      M_A    0.0000
   8766 N          63.1856   70.4872   32.7246 N.3     846      M_A    0.0000
   8767 O          61.4559   72.6909   31.5234 O.2     846      M_A    0.0000
   8768 H          63.9417   75.9294   31.4062 H       846      M_A    0.0000
   8769 H          64.3069   76.5819   33.6597 H       846      M_A    0.0000
   8770 H          63.9708   73.4683   34.8028 H       846      M_A    0.0000
   8771 H          64.4984   70.1395   32.9614 H       846      M_A    0.0000
   8772 H          62.4412   69.5888   31.9987 H       846      M_A    0.0000
   8773 C          66.1382   73.1981   32.7886 C.3     847      M_A    0.0000
   8774 C          67.4417   73.2330   34.4111 C.3     847      M_A    0.0000
   8775 C          66.6862   72.0767   35.9829 C.2     847      M_A    0.0000
   8776 N          67.7863   71.9274   37.4857 N.3     847      M_A    0.0000
   8777 O          65.1966   71.3327   35.9920 O.2     847      M_A    0.0000
   8778 H          66.1707   71.8940   32.0760 H       847      M_A    0.0000
   8779 H          66.5457   74.2205   31.7858 H       847      M_A    0.0000
   8780 H          67.5936   74.6205   34.9297 H       847      M_A    0.0000
   8781 H          69.1488   72.0339   37.3048 H       847      M_A    0.0000
   8782 H          67.3691   71.0354   38.4440 H       847      M_A    0.0000
   8783 C          69.4243   72.5306   33.8768 C.3     848      M_A    0.0000
   8784 C          70.5984   73.9989   32.9833 C.3     848      M_A    0.0000
   8785 C          70.3418   73.9791   30.9067 C.2     848      M_A    0.0000
   8786 N          71.2586   75.3039   29.9605 N.3     848      M_A    0.0000
   8787 O          69.4276   72.8694   30.0671 O.2     848      M_A    0.0000
   8788 H          70.0778   71.9501   35.0791 H       848      M_A    0.0000
   8789 H          69.2236   71.3955   32.9343 H       848      M_A    0.0000
   8790 H          72.0421   73.7431   33.2427 H       848      M_A    0.0000
   8791 H          71.5332   76.4900   30.6072 H       848      M_A    0.0000
   8792 H          70.9585   75.3972   28.6228 H       848      M_A    0.0000
   8793 C          70.1521   75.9778   33.7543 C.3     849      M_A    0.0000
   8794 C          71.7625   76.8529   34.7409 C.3     849      M_A    0.0000
   8795 C          73.5648   76.3095   33.8270 C.2     849      M_A    0.0000
   8796 N          75.1060   77.0904   34.5381 N.3     849      M_A    0.0000
   8797 O          73.7103   75.2311   32.5668 O.2     849      M_A    0.0000
   8798 H          69.6468   76.8313   32.6471 H       849      M_A    0.0000
   8799 H          69.0092   75.8104   34.6937 H       849      M_A    0.0000
   8800 H          71.8325   76.3780   36.1504 H       849      M_A    0.0000
   8801 H          74.9878   78.3229   35.1443 H       849      M_A    0.0000
   8802 H          76.2657   76.8684   33.8352 H       849      M_A    0.0000
   8803 C          71.5999   79.0161   34.8035 C.3     850      M_A    0.0000
   8804 C          73.0390   79.9092   36.0135 C.3     850      M_A    0.0000
   8805 C          74.9612   79.4601   35.3194 C.2     850      M_A    0.0000
   8806 N          76.3699   80.2666   36.2445 N.3     850      M_A    0.0000
   8807 O          75.3050   78.4329   34.0548 O.2     850      M_A    0.0000
   8808 H          71.6302   79.5489   33.4161 H       850      M_A    0.0000
   8809 H          70.2381   79.3161   35.3254 H       850      M_A    0.0000
   8810 H          72.9491   79.3868   37.4049 H       850      M_A    0.0000
   8811 H          76.1296   81.4719   36.8689 H       850      M_A    0.0000
   8812 H          77.6164   80.1092   35.6880 H       850      M_A    0.0000
   8813 C          72.7877   82.0620   36.1224 C.3     851      M_A    0.0000
   8814 C          73.4116   82.8670   37.9377 C.3     851      M_A    0.0000
   8815 C          75.1967   81.9708   38.5616 C.2     851      M_A    0.0000
   8816 N          75.9426   82.6506   40.1340 N.3     851      M_A    0.0000
   8817 O          75.9525   80.7054   37.7872 O.2     851      M_A    0.0000
   8818 H          73.4769   82.6937   34.9667 H       851      M_A    0.0000
   8819 H          71.3354   82.3221   35.9222 H       851      M_A    0.0000
   8820 H          72.4021   82.6045   39.0003 H       851      M_A    0.0000
   8821 H          75.6842   83.9652   40.4586 H       851      M_A    0.0000
   8822 H          77.1948   82.1819   40.4512 H       851      M_A    0.0000
   8823 C          73.6760   85.0180   37.8257 C.3     852      M_A    0.0000
   8824 C          72.3429   86.0692   39.0301 C.3     852      M_A    0.0000
   8825 C          73.2307   87.8225   39.7487 C.2     852      M_A    0.0000
   8826 N          72.1302   88.9312   40.7738 N.3     852      M_A    0.0000
   8827 O          74.8177   88.2612   39.5010 O.2     852      M_A    0.0000
   8828 H          75.0905   85.3535   38.1359 H       852      M_A    0.0000
   8829 H          73.4733   85.3883   36.3978 H       852      M_A    0.0000
   8830 H          71.9626   85.2586   40.2198 H       852      M_A    0.0000
   8831 H          70.7728   88.8966   40.5355 H       852      M_A    0.0000
   8832 H          72.6579   90.1567   41.1017 H       852      M_A    0.0000
   8833 C          70.5089   86.5588   37.9784 C.3     853      M_A    0.0000
   8834 C          69.1836   87.6813   39.1256 C.3     853      M_A    0.0000
   8835 C          70.0010   89.5570   39.5638 C.2     853      M_A    0.0000
   8836 N          68.8939   90.7263   40.5116 N.3     853      M_A    0.0000
   8837 O          71.5416   90.0455   39.1634 O.2     853      M_A    0.0000
   8838 H          70.8452   87.2327   36.6968 H       853      M_A    0.0000
   8839 H          69.8846   85.2600   37.6039 H       853      M_A    0.0000
   8840 H          68.9212   87.0094   40.4282 H       853      M_A    0.0000
   8841 H          67.5299   90.5886   40.3661 H       853      M_A    0.0000
   8842 H          69.3629   92.0103   40.6511 H       853      M_A    0.0000
   8843 C          67.2667   87.9336   38.1400 C.3     854      M_A    0.0000
   8844 C          65.6545   87.3778   39.3336 C.2     854      M_A    0.0000
   8845 C          64.9464   89.0202   40.4196 C.2     854      M_A    0.0000
   8846 N          63.4352   88.7091   41.4734 N.3     854      M_A    0.0000
   8847 O          65.6443   90.5319   40.4302 O.2     854      M_A    0.0000
   8848 H          67.1457   89.3344   37.6575 H       854      M_A    0.0000
   8849 H          67.3122   87.0844   36.9178 H       854      M_A    0.0000
   8850 H          66.0699   86.3495   40.3272 H       854      M_A    0.0000
   8851 H          62.5611   87.7194   41.0772 H       854      M_A    0.0000
   8852 H          62.8715   89.8213   42.0508 H       854      M_A    0.0000
   8853 C          80.8120   40.5009   26.7554 C.2     855      M_A    0.0000
   8854 C          79.7760   41.4896   26.2017 C.3     855      M_A    0.0000
   8855 C          78.3446   41.0042   26.5147 C.2     855      M_A    0.0000
   8856 N          77.3262   41.8477   26.1263 N.3     855      M_A    0.0000
   8857 O          78.0638   39.9344   27.0487 O.2     855      M_A    0.0000
   8858 H          81.0491   40.7003   27.8072 H       855      M_A    0.0000
   8859 H          81.7593   40.6040   26.2091 H       855      M_A    0.0000
   8860 H          79.8566   41.5605   25.1086 H       855      M_A    0.0000
   8861 H          77.5235   42.8440   26.0757 H       855      M_A    0.0000
   8862 H          76.3978   41.5906   26.4415 H       855      M_A    0.0000
   8863 C          79.9832   42.9655   26.7859 C.3     856      M_A    0.0000
   8864 C          81.3511   43.5671   26.4330 C.3     856      M_A    0.0000
   8865 C          81.4872   43.7408   24.9054 C.2     856      M_A    0.0000
   8866 N          82.6502   44.3388   24.4702 N.3     856      M_A    0.0000
   8867 O          80.6607   43.3678   24.0769 O.2     856      M_A    0.0000
   8868 H          79.1557   43.6040   26.4544 H       856      M_A    0.0000
   8869 H          79.8797   42.8814   27.8761 H       856      M_A    0.0000
   8870 H          82.1608   42.8963   26.7508 H       856      M_A    0.0000
   8871 H          83.1175   44.9886   25.0975 H       856      M_A    0.0000
   8872 H          82.6853   44.5659   23.4830 H       856      M_A    0.0000
   8873 C          81.5930   44.9736   27.1579 C.3     857      M_A    0.0000
   8874 C          81.5380   46.1666   26.1929 C.3     857      M_A    0.0000
   8875 C          80.0924   46.4010   25.7052 C.2     857      M_A    0.0000
   8876 N          79.9050   47.4924   24.8847 N.3     857      M_A    0.0000
   8877 O          79.1327   45.6831   25.9734 O.2     857      M_A    0.0000
   8878 H          80.8804   45.0806   27.9845 H       857      M_A    0.0000
   8879 H          82.5859   44.9124   27.6234 H       857      M_A    0.0000
   8880 H          82.1472   45.9690   25.3006 H       857      M_A    0.0000
   8881 H          80.5399   48.2804   24.9847 H       857      M_A    0.0000
   8882 H          78.9413   47.7187   24.6669 H       857      M_A    0.0000
   8883 C          82.1036   47.5062   26.8622 C.3     858      M_A    0.0000
   8884 C          80.9964   48.4777   27.2955 C.3     858      M_A    0.0000
   8885 C          80.1647   48.9281   26.0757 C.2     858      M_A    0.0000
   8886 N          79.0935   49.7508   26.3499 N.3     858      M_A    0.0000
   8887 O          80.4056   48.6292   24.9090 O.2     858      M_A    0.0000
   8888 H          82.7666   47.2414   27.6944 H       858      M_A    0.0000
   8889 H          82.7445   47.9800   26.1065 H       858      M_A    0.0000
   8890 H          81.4305   49.3846   27.7376 H       858      M_A    0.0000
   8891 H          78.6525   49.6734   27.2629 H       858      M_A    0.0000
   8892 H          78.4764   49.9443   25.5695 H       858      M_A    0.0000
   8893 C          80.0299   47.8331   28.3969 C.3     859      M_A    0.0000
   8894 C          78.5736   47.7135   27.9254 C.3     859      M_A    0.0000
   8895 C          78.4994   46.9421   26.5905 C.2     859      M_A    0.0000
   8896 N          77.2323   46.7101   26.1007 N.3     859      M_A    0.0000
   8897 O          79.4700   46.5562   25.9443 O.2     859      M_A    0.0000
   8898 H          80.4395   46.8670   28.7150 H       859      M_A    0.0000
   8899 H          80.0874   48.4881   29.2767 H       859      M_A    0.0000
   8900 H          78.1446   48.7080   27.7429 H       859      M_A    0.0000
   8901 H          76.4667   46.6446   26.7667 H       859      M_A    0.0000
   8902 H          77.1776   46.0986   25.2942 H       859      M_A    0.0000
   8903 C          77.6475   46.9938   29.0147 C.3     860      M_A    0.0000
   8904 C          77.2032   45.5859   28.5927 C.3     860      M_A    0.0000
   8905 C          77.1878   44.6366   29.8097 C.2     860      M_A    0.0000
   8906 N          76.7370   43.3569   29.5673 N.3     860      M_A    0.0000
   8907 O          77.5647   44.9335   30.9403 O.2     860      M_A    0.0000
   8908 H          78.1651   46.9887   29.9813 H       860      M_A    0.0000
   8909 H          76.7700   47.6408   29.1472 H       860      M_A    0.0000
   8910 H          77.9084   45.1608   27.8658 H       860      M_A    0.0000
   8911 H          76.0736   43.2192   28.8090 H       860      M_A    0.0000
   8912 H          76.6087   42.7733   30.3860 H       860      M_A    0.0000
   8913 C          75.7604   45.5949   27.8993 C.3     861      M_A    0.0000
   8914 C          75.4523   44.3012   27.1319 C.3     861      M_A    0.0000
   8915 C          75.0220   43.1842   28.1063 C.2     861      M_A    0.0000
   8916 N          74.6514   41.9905   27.5255 N.3     861      M_A    0.0000
   8917 O          75.0138   43.2812   29.3306 O.2     861      M_A    0.0000
   8918 H          74.9980   45.8152   28.6559 H       861      M_A    0.0000
   8919 H          75.7561   46.4503   27.2106 H       861      M_A    0.0000
   8920 H          76.3484   43.9403   26.6092 H       861      M_A    0.0000
   8921 H          74.2701   42.0152   26.5832 H       861      M_A    0.0000
   8922 H          74.2515   41.3017   28.1525 H       861      M_A    0.0000
   8923 C          74.3161   44.5164   26.0249 C.3     862      M_A    0.0000
   8924 C          72.9794   43.8591   26.3972 C.3     862      M_A    0.0000
   8925 C          72.5286   44.3099   27.8029 C.2     862      M_A    0.0000
   8926 N          71.3028   43.8381   28.2205 N.3     862      M_A    0.0000
   8927 O          73.1851   45.0202   28.5599 O.2     862      M_A    0.0000
   8928 H          74.2052   45.5889   25.8258 H       862      M_A    0.0000
   8929 H          74.7051   44.0771   25.0964 H       862      M_A    0.0000
   8930 H          73.0835   42.7662   26.4312 H       862      M_A    0.0000
   8931 H          70.6075   43.6201   27.5112 H       862      M_A    0.0000
   8932 H          70.9514   44.2319   29.0858 H       862      M_A    0.0000
   8933 C          71.8310   44.1900   25.3322 C.3     863      M_A    0.0000
   8934 C          70.4156   44.0706   25.9152 C.3     863      M_A    0.0000
   8935 C          70.3746   44.6293   27.3535 C.2     863      M_A    0.0000
   8936 N          69.1364   44.6398   27.9586 N.3     863      M_A    0.0000
   8937 O          71.3508   45.0291   27.9827 O.2     863      M_A    0.0000
   8938 H          72.0149   45.1806   24.8996 H       863      M_A    0.0000
   8939 H          71.9600   43.4741   24.5094 H       863      M_A    0.0000
   8940 H          70.1104   43.0171   25.9738 H       863      M_A    0.0000
   8941 H          68.3143   44.7103   27.3642 H       863      M_A    0.0000
   8942 H          69.0866   45.1191   28.8503 H       863      M_A    0.0000
   8943 C          69.3298   44.8261   25.0137 C.3     864      M_A    0.0000
   8944 C          67.9243   44.2184   25.1267 C.3     864      M_A    0.0000
   8945 C          67.3269   44.4943   26.5229 C.2     864      M_A    0.0000
   8946 N          66.0355   44.0554   26.7210 N.3     864      M_A    0.0000
   8947 O          67.9209   45.0410   27.4485 O.2     864      M_A    0.0000
   8948 H          69.3365   45.8944   25.2605 H       864      M_A    0.0000
   8949 H          69.6877   44.7548   23.9778 H       864      M_A    0.0000
   8950 H          67.9653   43.1273   25.0077 H       864      M_A    0.0000
   8951 H          65.4231   43.9906   25.9118 H       864      M_A    0.0000
   8952 H          65.6007   44.3453   27.5895 H       864      M_A    0.0000
   8953 C          66.9361   44.7783   23.9987 C.3     865      M_A    0.0000
   8954 C          65.4767   44.8702   24.4671 C.3     865      M_A    0.0000
   8955 C          65.4013   45.4763   25.8846 C.2     865      M_A    0.0000
   8956 N          64.1330   45.6737   26.3866 N.3     865      M_A    0.0000
   8957 O          66.3712   45.7614   26.5821 O.2     865      M_A    0.0000
   8958 H          67.3124   45.7421   23.6356 H       865      M_A    0.0000
   8959 H          67.0153   44.0858   23.1499 H       865      M_A    0.0000
   8960 H          65.0264   43.8699   24.5239 H       865      M_A    0.0000
   8961 H          63.3769   45.8347   25.7259 H       865      M_A    0.0000
   8962 H          64.0803   46.1844   27.2605 H       865      M_A    0.0000
   8963 C          64.5779   45.7350   23.4638 C.3     866      M_A    0.0000
   8964 C          63.0868   45.3740   23.5265 C.3     866      M_A    0.0000
   8965 C          62.7356   44.7649   24.9006 C.2     866      M_A    0.0000
   8966 N          61.4058   44.4638   25.1017 N.3     866      M_A    0.0000
   8967 O          63.5460   44.5156   25.7892 O.2     866      M_A    0.0000
   8968 H          64.7508   46.8012   23.6525 H       866      M_A    0.0000
   8969 H          64.9694   45.5410   22.4561 H       866      M_A    0.0000
   8970 H          62.8414   44.6165   22.7700 H       866      M_A    0.0000
   8971 H          60.7107   45.0069   24.5958 H       866      M_A    0.0000
   8972 H          61.1560   44.1824   26.0429 H       866      M_A    0.0000
   8973 C          62.1504   46.6414   23.2449 C.3     867      M_A    0.0000
   8974 C          60.7052   46.2576   22.8963 C.3     867      M_A    0.0000
   8975 C          60.5516   46.0569   21.3736 C.2     867      M_A    0.0000
   8976 N          59.3096   45.6407   20.9450 N.3     867      M_A    0.0000
   8977 O          61.4324   46.2632   20.5428 O.2     867      M_A    0.0000
   8978 H          62.1990   47.3233   24.1022 H       867      M_A    0.0000
   8979 H          62.6087   47.1812   22.4053 H       867      M_A    0.0000
   8980 H          60.0131   47.0608   23.1832 H       867      M_A    0.0000
   8981 H          58.7395   45.0966   21.5876 H       867      M_A    0.0000
   8982 H          59.2438   45.3893   19.9653 H       867      M_A    0.0000
   8983 C          60.2343   44.9339   23.6634 C.3     868      M_A    0.0000
   8984 C          59.6011   43.8903   22.7320 C.3     868      M_A    0.0000
   8985 C          60.4104   43.7723   21.4230 C.2     868      M_A    0.0000
   8986 N          59.9768   42.8131   20.5334 N.3     868      M_A    0.0000
   8987 O          61.3715   44.4754   21.1225 O.2     868      M_A    0.0000
   8988 H          61.0810   44.5226   24.2259 H       868      M_A    0.0000
   8989 H          59.5032   45.2588   24.4158 H       868      M_A    0.0000
   8990 H          58.5829   44.1917   22.4511 H       868      M_A    0.0000
   8991 H          59.4939   41.9992   20.9054 H       868      M_A    0.0000
   8992 H          60.5788   42.6501   19.7343 H       868      M_A    0.0000
   8993 C          59.4915   42.4529   23.4281 C.3     869      M_A    0.0000
   8994 C          59.8481   41.2966   22.4829 C.3     869      M_A    0.0000
   8995 C          61.3786   41.1887   22.3144 C.2     869      M_A    0.0000
   8996 N          61.8250   40.1396   21.5401 N.3     869      M_A    0.0000
   8997 O          62.1972   41.9703   22.7914 O.2     869      M_A    0.0000
   8998 H          60.1048   42.4447   24.3370 H       869      M_A    0.0000
   8999 H          58.4513   42.3543   23.7666 H       869      M_A    0.0000
   9000 H          59.4291   41.4729   21.4830 H       869      M_A    0.0000
   9001 H          61.2498   39.3024   21.4917 H       869      M_A    0.0000
   9002 H          62.8281   39.9947   21.5318 H       869      M_A    0.0000
   9003 C          59.2639   39.8983   22.9986 C.3     870      M_A    0.0000
   9004 C          60.3544   38.9283   23.4753 C.3     870      M_A    0.0000
   9005 C          60.7392   39.2254   24.9402 C.2     870      M_A    0.0000
   9006 N          61.6633   38.3718   25.5033 N.3     870      M_A    0.0000
   9007 O          60.3060   40.1614   25.6071 O.2     870      M_A    0.0000
   9008 H          58.5127   40.0857   23.7751 H       870      M_A    0.0000
   9009 H          58.7177   39.4626   22.1512 H       870      M_A    0.0000
   9010 H          61.2666   39.0489   22.8755 H       870      M_A    0.0000
   9011 H          61.7124   37.4196   25.1499 H       870      M_A    0.0000
   9012 H          61.8219   38.4891   26.4975 H       870      M_A    0.0000
   9013 C          59.8994   37.3997   23.3381 C.3     871      M_A    0.0000
   9014 C          60.4038   36.5151   24.4873 C.3     871      M_A    0.0000
   9015 C          59.6395   36.8334   25.7899 C.2     871      M_A    0.0000
   9016 N          59.9578   36.0515   26.8794 N.3     871      M_A    0.0000
   9017 O          58.8093   37.7293   25.9193 O.2     871      M_A    0.0000
   9018 H          58.8087   37.3561   23.2343 H       871      M_A    0.0000
   9019 H          60.3066   37.0428   22.3826 H       871      M_A    0.0000
   9020 H          61.4664   36.7096   24.6856 H       871      M_A    0.0000
   9021 H          60.2960   35.1079   26.7082 H       871      M_A    0.0000
   9022 H          59.3709   36.1756   27.6963 H       871      M_A    0.0000
   9023 C          60.2653   34.9564   24.1498 C.3     872      M_A    0.0000
   9024 C          60.0615   34.1317   25.2434 C.3     872      M_A    0.0000
   9025 C          59.0942   33.1725   24.9569 C.2     872      M_A    0.0000
   9026 N          58.8774   32.3378   25.8521 N.3     872      M_A    0.0000
   9027 O          58.5070   33.1219   24.0190 O.2     872      M_A    0.0000
   9028 H          59.5168   34.9089   23.5053 H       872      M_A    0.0000
   9029 H          61.0706   34.6657   23.6516 H       872      M_A    0.0000
   9030 H          59.7279   34.6547   26.0157 H       872      M_A    0.0000
   9031 H          59.5604   32.1391   26.4311 H       872      M_A    0.0000
   9032 H          58.3275   31.6444   25.6232 H       872      M_A    0.0000
   9033 C          61.2795   33.4814   25.6651 C.3     873      M_A    0.0000
   9034 C          61.1315   32.1171   25.8502 C.3     873      M_A    0.0000
   9035 C          61.5190   31.4251   24.7061 C.2     873      M_A    0.0000
   9036 N          61.4852   30.1851   24.7856 N.3     873      M_A    0.0000
   9037 O          61.8242   31.8959   23.7510 O.2     873      M_A    0.0000
   9038 H          62.0003   33.6920   25.0216 H       873      M_A    0.0000
   9039 H          61.5427   33.9124   26.5172 H       873      M_A    0.0000
   9040 H          60.1816   31.8897   26.0156 H       873      M_A    0.0000
   9041 H          61.5991   29.8026   25.6113 H       873      M_A    0.0000
   9042 H          61.8450   29.7322   24.0777 H       873      M_A    0.0000
   9043 C          61.8862   31.6399   26.9846 C.3     874      M_A    0.0000
   9044 C          63.0225   30.9352   26.6243 C.3     874      M_A    0.0000
   9045 C          63.3215   31.1464   25.2812 C.2     874      M_A    0.0000
   9046 N          64.3625   30.6081   24.8669 N.3     874      M_A    0.0000
   9047 O          62.6969   31.7272   24.5744 O.2     874      M_A    0.0000
   9048 H          62.0957   32.4016   27.5795 H       874      M_A    0.0000
   9049 H          61.2737   31.0552   27.4985 H       874      M_A    0.0000
   9050 H          62.8783   29.9617   26.7370 H       874      M_A    0.0000
   9051 H          65.0393   30.4588   25.4676 H       874      M_A    0.0000
   9052 H          64.6179   30.8377   24.0197 H       874      M_A    0.0000
   9053 C          64.1612   31.2927   27.4367 C.3     875      M_A    0.0000
   9054 C          64.5514   30.2830   28.3003 C.3     875      M_A    0.0000
   9055 C          65.4501   29.4249   27.6727 C.2     875      M_A    0.0000
   9056 N          65.9143   28.5147   28.3806 N.3     875      M_A    0.0000
   9057 O          65.7506   29.4866   26.6083 O.2     875      M_A    0.0000
   9058 H          64.9013   31.5842   26.8491 H       875      M_A    0.0000
   9059 H          63.8926   32.0946   27.9523 H       875      M_A    0.0000
   9060 H          63.7713   29.7351   28.5697 H       875      M_A    0.0000
   9061 H          65.9763   28.6600   29.2840 H       875      M_A    0.0000
   9062 H          66.5861   28.0225   28.0037 H       875      M_A    0.0000
   9063 C          65.1424   30.8041   29.5101 C.3     876      M_A    0.0000
   9064 C          64.9797   29.9653   30.5998 C.3     876      M_A    0.0000
   9065 C          64.8741   28.6410   30.1841 C.2     876      M_A    0.0000
   9066 N          64.7873   27.7942   31.0899 N.3     876      M_A    0.0000
   9067 O          64.8404   28.3066   29.1286 O.2     876      M_A    0.0000
   9068 H          66.0943   31.0138   29.3428 H       876      M_A    0.0000
   9069 H          64.6997   31.6733   29.6824 H       876      M_A    0.0000
   9070 H          64.1429   30.1823   31.0836 H       876      M_A    0.0000
   9071 H          65.1687   27.9895   31.9008 H       876      M_A    0.0000
   9072 H          64.8316   26.9212   30.8225 H       876      M_A    0.0000
   9073 C          66.0625   30.0917   31.5464 C.3     877      M_A    0.0000
   9074 C          65.7686   30.9432   32.5981 C.3     877      M_A    0.0000
   9075 C          66.3076   30.4554   33.7853 C.2     877      M_A    0.0000
   9076 N          66.1559   31.1772   34.7859 N.3     877      M_A    0.0000
   9077 O          66.8270   29.4833   33.8957 O.2     877      M_A    0.0000
   9078 H          66.3264   29.1920   31.8607 H       877      M_A    0.0000
   9079 H          66.8373   30.4385   31.0360 H       877      M_A    0.0000
   9080 H          64.7890   31.0057   32.7316 H       877      M_A    0.0000
   9081 H          66.0783   32.0819   34.6572 H       877      M_A    0.0000
   9082 H          66.6047   30.9132   35.5372 H       877      M_A    0.0000
   9083 C          66.2513   32.2830   32.3608 C.3     878      M_A    0.0000
   9084 C          66.4909   32.9893   33.5275 C.3     878      M_A    0.0000
   9085 C          66.4966   32.1317   34.6240 C.2     878      M_A    0.0000
   9086 N          66.7656   32.6546   35.7191 N.3     878      M_A    0.0000
   9087 O          66.2610   31.0500   34.5865 O.2     878      M_A    0.0000
   9088 H          67.0516   32.2424   31.7812 H       878      M_A    0.0000
   9089 H          65.5526   32.7383   31.8264 H       878      M_A    0.0000
   9090 H          65.7729   33.6532   33.6856 H       878      M_A    0.0000
   9091 H          67.2967   33.4023   35.7212 H       878      M_A    0.0000
   9092 H          66.8801   32.0760   36.4176 H       878      M_A    0.0000
   9093 C          67.7372   33.7162   33.4737 C.3     879      M_A    0.0000
   9094 C          68.5359   33.5090   34.5858 C.3     879      M_A    0.0000
   9095 C          68.5217   32.1663   34.9529 C.2     879      M_A    0.0000
   9096 N          69.2578   31.8575   35.9057 N.3     879      M_A    0.0000
   9097 O          67.8971   31.3840   34.4786 O.2     879      M_A    0.0000
   9098 H          68.2077   33.4932   32.6329 H       879      M_A    0.0000
   9099 H          67.4960   34.6743   33.4034 H       879      M_A    0.0000
   9100 H          68.1930   34.0224   35.3605 H       879      M_A    0.0000
   9101 H          70.0088   32.3631   36.0519 H       879      M_A    0.0000
   9102 H          69.3347   30.9622   36.0736 H       879      M_A    0.0000
   9103 C          69.8966   33.9363   34.3618 C.3     880      M_A    0.0000
   9104 C          70.5625   34.2656   35.5305 C.3     880      M_A    0.0000
   9105 C          70.2395   35.5602   35.9273 C.2     880      M_A    0.0000
   9106 N          70.7357   35.9367   37.0030 N.3     880      M_A    0.0000
   9107 O          69.6059   36.2626   35.3508 O.2     880      M_A    0.0000
   9108 H          70.3750   33.2412   33.8461 H       880      M_A    0.0000
   9109 H          69.8443   34.7269   33.7674 H       880      M_A    0.0000
   9110 H          71.5428   34.2443   35.3899 H       880      M_A    0.0000
   9111 H          70.9302   35.3005   37.6343 H       880      M_A    0.0000
   9112 H          70.4354   36.7403   37.3187 H       880      M_A    0.0000
   9113 C          70.2668   33.3423   36.6003 C.3     881      M_A    0.0000
   9114 C          69.7789   33.9652   37.7368 C.3     881      M_A    0.0000
   9115 C          68.7798   34.8753   37.4030 C.2     881      M_A    0.0000
   9116 N          68.2271   35.4473   38.3582 N.3     881      M_A    0.0000
   9117 O          68.4717   35.1309   36.3701 O.2     881      M_A    0.0000
   9118 H          69.6505   32.6446   36.2666 H       881      M_A    0.0000
   9119 H          71.1163   32.8770   36.8072 H       881      M_A    0.0000
   9120 H          70.4965   34.4785   38.1871 H       881      M_A    0.0000
   9121 H          68.1958   35.0096   39.1634 H       881      M_A    0.0000
   9122 H          67.4985   35.9576   38.1473 H       881      M_A    0.0000
   9123 C          69.2689   33.0158   38.6975 C.3     882      M_A    0.0000
   9124 C          68.8393   33.6089   39.8727 C.3     882      M_A    0.0000
   9125 C          69.5988   33.1618   40.9503 C.2     882      M_A    0.0000
   9126 N          69.3373   33.6802   42.0494 N.3     882      M_A    0.0000
   9127 O          70.3818   32.3802   40.8956 O.2     882      M_A    0.0000
   9128 H          68.5577   32.4747   38.2740 H       882      M_A    0.0000
   9129 H          70.0110   32.3875   38.8865 H       882      M_A    0.0000
   9130 H          67.8986   33.3633   40.0625 H       882      M_A    0.0000
   9131 H          68.9936   34.5304   42.0543 H       882      M_A    0.0000
   9132 H          69.9079   33.4713   42.7323 H       882      M_A    0.0000
   9133 C          68.8964   35.0499   39.8039 C.3     883      M_A    0.0000
   9134 C          69.4358   35.6277   40.9409 C.3     883      M_A    0.0000
   9135 C          70.6044   34.9699   41.3144 C.2     883      M_A    0.0000
   9136 N          71.2067   35.4483   42.2908 N.3     883      M_A    0.0000
   9137 O          71.0065   34.0610   40.8254 O.2     883      M_A    0.0000
   9138 H          69.3833   35.3174   38.9857 H       883      M_A    0.0000
   9139 H          67.9636   35.3581   39.6770 H       883      M_A    0.0000
   9140 H          68.8066   35.5503   41.7021 H       883      M_A    0.0000
   9141 H          71.1143   36.3454   42.4573 H       883      M_A    0.0000
   9142 H          72.0283   35.0876   42.4657 H       883      M_A    0.0000
   9143 C          69.7082   37.0334   40.7563 C.3     884      M_A    0.0000
   9144 C          70.4329   37.5881   41.7978 C.3     884      M_A    0.0000
   9145 C          71.3461   38.5207   41.3137 C.2     884      M_A    0.0000
   9146 N          72.0081   39.1271   42.1733 N.3     884      M_A    0.0000
   9147 O          71.5304   38.7332   40.2423 O.2     884      M_A    0.0000
   9148 H          70.1530   37.1666   39.8832 H       884      M_A    0.0000
   9149 H          68.8266   37.4788   40.6820 H       884      M_A    0.0000
   9150 H          70.9563   36.8905   42.2674 H       884      M_A    0.0000
   9151 H          71.6355   39.2410   43.0036 H       884      M_A    0.0000
   9152 H          72.5237   39.8158   41.8641 H       884      M_A    0.0000
   9153 C          69.5780   38.2112   42.7803 C.3     885      M_A    0.0000
   9154 C          70.2546   39.0870   43.6126 C.3     885      M_A    0.0000
   9155 C          69.7199   39.0497   44.8974 C.2     885      M_A    0.0000
   9156 N          70.2953   39.7546   45.7442 N.3     885      M_A    0.0000
   9157 O          68.8270   38.4671   45.1979 O.2     885      M_A    0.0000
   9158 H          68.8192   38.6482   42.3208 H       885      M_A    0.0000
   9159 H          69.1845   37.4740   43.3121 H       885      M_A    0.0000
   9160 H          70.1594   40.0182   43.2886 H       885      M_A    0.0000
   9161 H          71.1880   39.9286   45.6258 H       885      M_A    0.0000
   9162 H          70.0165   39.6444   46.6077 H       885      M_A    0.0000
   9163 C          71.6682   38.7987   43.6671 C.3     886      M_A    0.0000
   9164 C          72.3979   39.7769   44.3215 C.3     886      M_A    0.0000
   9165 C          71.8390   40.0506   45.5668 C.2     886      M_A    0.0000
   9166 N          72.4539   40.8727   46.2675 N.3     886      M_A    0.0000
   9167 O          70.8971   39.6124   45.9513 O.2     886      M_A    0.0000
   9168 H          71.8027   37.9051   44.0688 H       886      M_A    0.0000
   9169 H          71.9715   38.7216   42.7273 H       886      M_A    0.0000
   9170 H          72.3834   40.6236   43.8077 H       886      M_A    0.0000
   9171 H          73.3596   40.9509   46.1461 H       886      M_A    0.0000
   9172 H          72.1518   40.9677   47.1250 H       886      M_A    0.0000
   9173 C          73.7826   39.4018   44.4832 C.3     887      M_A    0.0000
   9174 C          74.6558   40.4651   44.3265 C.3     887      M_A    0.0000
   9175 C          75.7121   40.3653   45.2277 C.2     887      M_A    0.0000
   9176 N          76.5911   41.2387   45.1307 N.3     887      M_A    0.0000
   9177 O          75.8039   39.5934   46.0169 O.2     887      M_A    0.0000
   9178 H          73.8982   38.9531   45.3568 H       887      M_A    0.0000
   9179 H          73.9640   38.7105   43.7974 H       887      M_A    0.0000
   9180 H          74.1970   41.3225   44.5153 H       887      M_A    0.0000
   9181 H          76.7257   41.6260   44.3103 H       887      M_A    0.0000
   9182 H          77.3368   41.1098   45.6435 H       887      M_A    0.0000
   9183 C          75.1724   40.5472   42.9809 C.3     888      M_A    0.0000
   9184 C          76.3545   39.8468   42.8086 C.3     888      M_A    0.0000
   9185 C          76.4782   39.4160   41.4906 C.2     888      M_A    0.0000
   9186 N          77.5369   38.8283   41.2100 N.3     888      M_A    0.0000
   9187 O          75.7061   39.5400   40.7060 O.2     888      M_A    0.0000
   9188 H          74.4729   40.2555   42.3456 H       888      M_A    0.0000
   9189 H          75.3193   41.5098   42.7990 H       888      M_A    0.0000
   9190 H          76.3645   39.0363   43.3780 H       888      M_A    0.0000
   9191 H          78.2870   39.0359   41.6950 H       888      M_A    0.0000
   9192 H          77.6666   38.6463   40.3236 H       888      M_A    0.0000
   9193 C          77.5083   40.6350   43.1715 C.3     889      M_A    0.0000
   9194 C          78.6664   39.8842   43.2836 C.3     889      M_A    0.0000
   9195 C          78.6072   38.7697   42.4515 C.2     889      M_A    0.0000
   9196 N          79.6255   38.0573   42.4271 N.3     889      M_A    0.0000
   9197 O          77.7280   38.4744   41.8459 O.2     889      M_A    0.0000
   9198 H          77.6098   41.3787   42.5276 H       889      M_A    0.0000
   9199 H          77.2927   41.0572   44.0412 H       889      M_A    0.0000
   9200 H          78.7737   39.5467   44.2087 H       889      M_A    0.0000
   9201 H          80.4336   38.4538   42.6028 H       889      M_A    0.0000
   9202 H          79.6298   37.3927   41.7995 H       889      M_A    0.0000
   9203 C          79.8452   40.6582   42.9745 C.3     890      M_A    0.0000
   9204 C          80.2285   41.5002   44.0049 C.3     890      M_A    0.0000
   9205 C          81.5241   41.2046   44.4196 C.2     890      M_A    0.0000
   9206 N          81.9925   41.9444   45.3018 N.3     890      M_A    0.0000
   9207 O          82.1365   40.3629   44.0408 O.2     890      M_A    0.0000
   9208 H          80.5743   40.0469   42.7049 H       890      M_A    0.0000
   9209 H          79.6243   41.1888   42.1678 H       890      M_A    0.0000
   9210 H          79.6397   41.3768   44.7919 H       890      M_A    0.0000
   9211 H          81.6824   42.8061   45.3515 H       890      M_A    0.0000
   9212 H          82.8780   41.8223   45.4930 H       890      M_A    0.0000
   9213 C          80.1458   42.8910   43.6265 C.3     891      M_A    0.0000
   9214 C          79.5119   43.6758   44.5750 C.3     891      M_A    0.0000
   9215 C          80.3897   44.6281   45.0853 C.2     891      M_A    0.0000
   9216 N          79.9045   45.4294   45.9023 N.3     891      M_A    0.0000
   9217 O          81.4662   44.7000   44.8340 O.2     891      M_A    0.0000
   9218 H          81.0523   43.2249   43.4150 H       891      M_A    0.0000
   9219 H          79.6420   42.9164   42.7740 H       891      M_A    0.0000
   9220 H          79.2119   43.1225   45.3399 H       891      M_A    0.0000
   9221 H          79.0095   45.6200   45.8400 H       891      M_A    0.0000
   9222 H          80.4483   46.1209   46.1507 H       891      M_A    0.0000
   9223 C          78.3420   44.3316   44.0405 C.3     892      M_A    0.0000
   9224 C          78.1950   45.6330   44.4902 C.3     892      M_A    0.0000
   9225 C          78.9927   46.4986   43.7469 C.2     892      M_A    0.0000
   9226 N          78.8897   47.7052   44.0272 N.3     892      M_A    0.0000
   9227 O          79.7086   46.1869   42.9612 O.2     892      M_A    0.0000
   9228 H          78.3634   44.2810   43.0531 H       892      M_A    0.0000
   9229 H          77.5653   43.7857   44.3230 H       892      M_A    0.0000
   9230 H          78.4884   45.7102   45.4332 H       892      M_A    0.0000
   9231 H          78.0935   48.0012   44.3730 H       892      M_A    0.0000
   9232 H          79.3257   48.2812   43.4670 H       892      M_A    0.0000
   9233 C          76.8209   46.0724   44.4356 C.3     893      M_A    0.0000
   9234 C          76.4405   46.8075   45.5458 C.2     893      M_A    0.0000
   9235 C          76.6574   48.1654   45.3290 C.2     893      M_A    0.0000
   9236 N          76.2908   48.9249   46.2421 N.3     893      M_A    0.0000
   9237 O          77.1424   48.5965   44.4312 O.2     893      M_A    0.0000
   9238 H          76.6714   46.5689   43.5935 H       893      M_A    0.0000
   9239 H          76.2703   45.2518   44.3677 H       893      M_A    0.0000
   9240 H          76.9830   46.5521   46.3344 H       893      M_A    0.0000
   9241 H          75.5975   48.6528   46.7772 H       893      M_A    0.0000
   9242 H          76.3290   49.8187   46.0540 H       893      M_A    0.0000
   9243 C          88.2815   24.9867   28.6110 C.2     894      M_A    0.0000
   9244 C          87.5802   23.5300   28.2673 C.3     894      M_A    0.0000
   9245 C          86.2762   23.2630   29.2618 C.2     894      M_A    0.0000
   9246 N          85.5109   22.0184   29.0042 N.3     894      M_A    0.0000
   9247 O          85.9056   24.0522   30.2557 O.2     894      M_A    0.0000
   9248 H          87.5504   25.8896   28.4026 H       894      M_A    0.0000
   9249 H          89.2177   25.1603   27.9102 H       894      M_A    0.0000
   9250 H          88.3432   22.6470   28.4574 H       894      M_A    0.0000
   9251 H          85.5125   21.6144   27.9868 H       894      M_A    0.0000
   9252 H          84.5810   21.9097   29.5645 H       894      M_A    0.0000
   9253 C          87.0835   23.4249   26.6205 C.3     895      M_A    0.0000
   9254 C          87.2475   24.8508   25.8009 C.3     895      M_A    0.0000
   9255 C          88.8513   25.1738   25.5106 C.2     895      M_A    0.0000
   9256 N          89.1311   26.3934   24.7134 N.3     895      M_A    0.0000
   9257 O          89.8640   24.4494   25.9553 O.2     895      M_A    0.0000
   9258 H          87.6660   22.5431   26.0949 H       895      M_A    0.0000
   9259 H          85.9477   23.0970   26.6383 H       895      M_A    0.0000
   9260 H          86.8275   25.7498   26.4439 H       895      M_A    0.0000
   9261 H          88.3699   26.7293   24.0022 H       895      M_A    0.0000
   9262 H          90.1697   26.5323   24.4092 H       895      M_A    0.0000
   9263 C          86.3798   24.8435   24.3122 C.3     896      M_A    0.0000
   9264 C          85.4894   26.2154   24.0732 C.3     896      M_A    0.0000
   9265 C          86.4439   27.4288   23.4589 C.2     896      M_A    0.0000
   9266 N          85.7460   28.6955   23.1282 N.3     896      M_A    0.0000
   9267 O          87.7511   27.3480   23.2776 O.2     896      M_A    0.0000
   9268 H          87.1326   24.6447   23.4250 H       896      M_A    0.0000
   9269 H          85.6676   23.9005   24.3494 H       896      M_A    0.0000
   9270 H          85.0511   26.6094   25.0982 H       896      M_A    0.0000
   9271 H          84.6871   28.6439   22.8557 H       896      M_A    0.0000
   9272 H          86.3433   29.4418   22.6021 H       896      M_A    0.0000
   9273 C          84.1520   25.9422   23.0215 C.3     897      M_A    0.0000
   9274 C          82.8790   26.9550   23.3139 C.3     897      M_A    0.0000
   9275 C          82.0476   27.2651   21.9092 C.2     897      M_A    0.0000
   9276 N          80.8328   28.1053   22.0490 N.3     897      M_A    0.0000
   9277 O          82.4050   26.8457   20.7074 O.2     897      M_A    0.0000
   9278 H          84.5195   26.0058   21.9016 H       897      M_A    0.0000
   9279 H          83.8226   24.8194   23.1905 H       897      M_A    0.0000
   9280 H          83.2624   27.9962   23.7225 H       897      M_A    0.0000
   9281 H          80.2997   28.0845   23.0048 H       897      M_A    0.0000
   9282 H          80.2150   28.1970   21.1544 H       897      M_A    0.0000
   9283 C          81.8009   26.3129   24.4950 C.3     898      M_A    0.0000
   9284 C          80.2132   26.6354   24.1680 C.3     898      M_A    0.0000
   9285 C          80.0868   27.8018   22.9915 C.2     898      M_A    0.0000
   9286 N          78.7083   28.1298   22.5519 N.3     898      M_A    0.0000
   9287 O          81.1048   28.4555   22.4584 O.2     898      M_A    0.0000
   9288 H          82.0015   25.1560   24.6155 H       898      M_A    0.0000
   9289 H          82.1094   26.8036   25.5255 H       898      M_A    0.0000
   9290 H          79.6690   27.0573   25.1292 H       898      M_A    0.0000
   9291 H          77.9434   27.3508   22.6318 H       898      M_A    0.0000
   9292 H          78.6317   28.7938   21.6895 H       898      M_A    0.0000
   9293 C          79.3550   25.2236   23.6783 C.3     899      M_A    0.0000
   9294 C          77.9316   25.5632   22.9099 C.3     899      M_A    0.0000
   9295 C          78.1778   26.6616   21.6878 C.2     899      M_A    0.0000
   9296 N          76.9865   26.9953   20.8689 N.3     899      M_A    0.0000
   9297 O          79.3274   27.2593   21.4247 O.2     899      M_A    0.0000
   9298 H          80.0634   24.5480   23.0187 H       899      M_A    0.0000
   9299 H          79.1451   24.6058   24.6642 H       899      M_A    0.0000
   9300 H          77.1611   26.0529   23.6612 H       899      M_A    0.0000
   9301 H          76.1998   26.2403   20.7731 H       899      M_A    0.0000
   9302 H          77.1751   27.6095   19.9870 H       899      M_A    0.0000
   9303 C          77.1873   24.1455   22.2730 C.3     900      M_A    0.0000
   9304 C          76.1427   24.4627   21.0320 C.3     900      M_A    0.0000
   9305 C          75.7265   26.0712   21.0185 C.2     900      M_A    0.0000
   9306 N          74.8482   26.5023   19.9033 N.3     900      M_A    0.0000
   9307 O          76.0951   26.9582   21.9271 O.2     900      M_A    0.0000
   9308 H          78.0246   23.3746   21.9602 H       900      M_A    0.0000
   9309 H          76.6064   23.6446   23.1727 H       900      M_A    0.0000
   9310 H          75.1404   23.8501   21.1665 H       900      M_A    0.0000
   9311 H          74.8989   25.9444   18.9629 H       900      M_A    0.0000
   9312 H          74.6853   27.5778   19.8174 H       900      M_A    0.0000
   9313 C          76.8041   24.0230   19.5027 C.3     901      M_A    0.0000
   9314 C          76.6783   25.2221   18.3723 C.3     901      M_A    0.0000
   9315 C          76.5514   26.7057   19.1095 C.2     901      M_A    0.0000
   9316 N          76.5069   27.8776   18.2007 N.3     901      M_A    0.0000
   9317 O          76.4625   26.8997   20.4143 O.2     901      M_A    0.0000
   9318 H          77.9205   23.6692   19.6499 H       901      M_A    0.0000
   9319 H          76.2063   23.0671   19.1467 H       901      M_A    0.0000
   9320 H          75.7019   25.0780   17.7212 H       901      M_A    0.0000
   9321 H          77.0001   27.7929   17.2271 H       901      M_A    0.0000
   9322 H          76.5595   28.8542   18.6844 H       901      M_A    0.0000
   9323 C          78.0157   25.2282   17.2857 C.3     902      M_A    0.0000
   9324 C          78.0584   26.5663   16.3164 C.3     902      M_A    0.0000
   9325 C          78.5537   27.8956   17.1814 C.2     902      M_A    0.0000
   9326 N          78.7063   29.1513   16.4060 N.3     902      M_A    0.0000
   9327 O          78.7865   27.9107   18.4828 O.2     902      M_A    0.0000
   9328 H          79.0151   25.0945   17.8994 H       902      M_A    0.0000
   9329 H          77.9092   24.2535   16.6251 H       902      M_A    0.0000
   9330 H          76.9796   26.8110   15.8991 H       902      M_A    0.0000
   9331 H          78.9479   29.0726   15.3413 H       902      M_A    0.0000
   9332 H          79.1583   29.9870   16.9424 H       902      M_A    0.0000
   9333 C          79.0905   26.3444   14.9544 C.3     903      M_A    0.0000
   9334 C          78.7254   27.3483   13.6931 C.3     903      M_A    0.0000
   9335 C          79.6467   28.7292   13.7631 C.2     903      M_A    0.0000
   9336 N          79.4676   29.6834   12.6413 N.3     903      M_A    0.0000
   9337 O          80.4837   29.0345   14.7400 O.2     903      M_A    0.0000
   9338 H          80.2146   26.4555   15.2969 H       903      M_A    0.0000
   9339 H          78.9632   25.2166   14.6235 H       903      M_A    0.0000
   9340 H          77.5941   27.6877   13.7470 H       903      M_A    0.0000
   9341 H          79.1563   29.2843   11.6707 H       903      M_A    0.0000
   9342 H          80.1659   30.5214   12.6163 H       903      M_A    0.0000
   9343 C          78.9515   26.5781   12.1683 C.3     904      M_A    0.0000
   9344 C          80.5358   26.5159   11.7012 C.3     904      M_A    0.0000
   9345 C          81.4998   27.2936   12.8087 C.2     904      M_A    0.0000
   9346 N          82.9586   27.2447   12.5431 N.3     904      M_A    0.0000
   9347 O          81.0599   27.9566   13.8647 O.2     904      M_A    0.0000
   9348 H          78.4566   25.5069   12.1973 H       904      M_A    0.0000
   9349 H          78.3234   27.2035   11.3858 H       904      M_A    0.0000
   9350 H          80.6856   27.0695   10.6673 H       904      M_A    0.0000
   9351 H          83.3515   26.3900   11.9833 H       904      M_A    0.0000
   9352 H          83.5977   27.6365   13.3359 H       904      M_A    0.0000
   9353 C          81.0844   24.8957   11.4928 C.3     905      M_A    0.0000
   9354 C          82.6814   24.6978   11.8700 C.3     905      M_A    0.0000
   9355 C          82.9241   24.9048   13.5006 C.2     905      M_A    0.0000
   9356 N          84.3093   24.6791   13.9818 N.3     905      M_A    0.0000
   9357 O          81.9946   25.2737   14.3655 O.2     905      M_A    0.0000
   9358 H          80.3905   24.1683   12.1113 H       905      M_A    0.0000
   9359 H          80.9013   24.6285   10.3558 H       905      M_A    0.0000
   9360 H          83.3416   25.5094   11.3192 H       905      M_A    0.0000
   9361 H          84.9427   23.9852   13.4201 H       905      M_A    0.0000
   9362 H          84.4407   24.6826   15.0650 H       905      M_A    0.0000
   9363 C          83.2720   23.1522   11.3884 C.3     906      M_A    0.0000
   9364 C          84.8113   23.2036   10.7887 C.3     906      M_A    0.0000
   9365 C          85.9165   23.2703   12.0277 C.2     906      M_A    0.0000
   9366 N          87.3436   23.2451   11.6230 N.3     906      M_A    0.0000
   9367 O          85.6132   23.3691   13.3107 O.2     906      M_A    0.0000
   9368 H          83.1747   22.4003   12.2932 H       906      M_A    0.0000
   9369 H          82.5277   22.7579   10.5588 H       906      M_A    0.0000
   9370 H          84.9697   24.1760   10.1351 H       906      M_A    0.0000
   9371 H          87.6042   22.7421   10.6863 H       906      M_A    0.0000
   9372 H          88.0649   23.1530   12.4364 H       906      M_A    0.0000
   9373 C          85.1560   21.8515    9.7776 C.3     907      M_A    0.0000
   9374 C          86.1865   20.7644   10.4764 C.3     907      M_A    0.0000
   9375 C          85.6023   20.2753   11.9530 C.2     907      M_A    0.0000
   9376 N          86.4006   19.2390   12.6530 N.3     907      M_A    0.0000
   9377 O          84.5188   20.7568   12.5379 O.2     907      M_A    0.0000
   9378 H          84.1420   21.3480    9.4437 H       907      M_A    0.0000
   9379 H          85.6390   22.2906    8.7919 H       907      M_A    0.0000
   9380 H          87.2420   21.2600   10.6722 H       907      M_A    0.0000
   9381 H          86.9934   18.5482   12.0451 H       907      M_A    0.0000
   9382 H          85.9489   18.8220   13.5544 H       907      M_A    0.0000
   9383 C          86.4507   19.3882    9.4736 C.3     908      M_A    0.0000
   9384 C          86.0275   17.9651   10.1998 C.3     908      M_A    0.0000
   9385 C          85.8550   18.1771   11.8388 C.2     908      M_A    0.0000
   9386 N          85.4023   16.9871   12.6004 N.3     908      M_A    0.0000
   9387 O          86.1146   19.2977   12.4906 O.2     908      M_A    0.0000
   9388 H          85.8914   19.5437    8.4459 H       908      M_A    0.0000
   9389 H          87.6046   19.3835    9.2163 H       908      M_A    0.0000
   9390 H          86.8732   17.1532   10.0461 H       908      M_A    0.0000
   9391 H          84.7894   16.2449   12.0791 H       908      M_A    0.0000
   9392 H          85.1603   17.1607   13.6501 H       908      M_A    0.0000
   9393 C          84.5734   17.3129    9.5443 C.3     909      M_A    0.0000
   9394 C          83.2154   17.8428   10.3233 C.2     909      M_A    0.0000
   9395 C          82.6246   19.2143    9.5948 C.2     909      M_A    0.0000
   9396 N          81.3598   19.7503   10.1553 N.3     909      M_A    0.0000
   9397 O          83.2075   19.8541    8.5954 O.2     909      M_A    0.0000
   9398 H          84.5349   17.5374    8.3861 H       909      M_A    0.0000
   9399 H          84.6641   16.1383    9.6432 H       909      M_A    0.0000
   9400 H          83.4645   18.1293   11.4431 H       909      M_A    0.0000
   9401 H          80.6709   19.0478   10.6352 H       909      M_A    0.0000
   9402 H          80.9024   20.5674    9.5953 H       909      M_A    0.0000
   9403 C          74.7559   17.9049   46.8592 C.2     910      M_A    0.0000
   9404 C          73.6755   16.8463   46.5957 C.3     910      M_A    0.0000
   9405 C          73.8180   16.0125   47.4910 C.2     910      M_A    0.0000
   9406 N          73.1093   15.1714   47.4799 N.3     910      M_A    0.0000
   9407 O          74.5150   16.0399   48.1797 O.2     910      M_A    0.0000
   9408 H          74.5426   18.4946   47.7587 H       910      M_A    0.0000
   9409 H          74.7880   18.6237   46.0294 H       910      M_A    0.0000
   9410 H          73.8182   16.4315   45.8368 H       910      M_A    0.0000
   9411 H          72.3758   15.2948   47.1555 H       910      M_A    0.0000
   9412 H          73.1382   14.6796   48.1214 H       910      M_A    0.0000
   9413 C          72.4653   17.2552   46.5787 C.3     911      M_A    0.0000
   9414 C          72.3487   18.3952   46.1449 C.3     911      M_A    0.0000
   9415 C          72.3034   18.3858   44.9140 C.2     911      M_A    0.0000
   9416 N          72.1433   19.3618   44.4328 N.3     911      M_A    0.0000
   9417 O          72.4180   17.5904   44.3528 O.2     911      M_A    0.0000
   9418 H          71.9746   16.6834   46.1339 H       911      M_A    0.0000
   9419 H          72.1830   17.2196   47.4077 H       911      M_A    0.0000
   9420 H          73.0417   18.8825   46.3701 H       911      M_A    0.0000
   9421 H          71.7392   19.9301   44.8478 H       911      M_A    0.0000
   9422 H          72.0141   19.3426   43.6345 H       911      M_A    0.0000
   9423 C          71.3117   18.9800   46.6081 C.3     912      M_A    0.0000
   9424 C          71.0483   20.0254   46.0256 C.3     912      M_A    0.0000
   9425 C          70.2256   19.8252   45.1310 C.2     912      M_A    0.0000
   9426 N          69.8838   20.7172   44.5858 N.3     912      M_A    0.0000
   9427 O          69.8822   18.9453   44.8689 O.2     912      M_A    0.0000
   9428 H          70.6383   18.4213   46.5995 H       912      M_A    0.0000
   9429 H          71.4784   19.1415   47.4532 H       912      M_A    0.0000
   9430 H          71.7654   20.3533   45.6429 H       912      M_A    0.0000
   9431 H          69.8922   21.4290   44.9754 H       912      M_A    0.0000
   9432 H          69.2729   20.6000   44.0688 H       912      M_A    0.0000
   9433 C          70.6058   20.9196   46.8234 C.3     913      M_A    0.0000
   9434 C          70.4376   22.0062   46.2826 C.3     913      M_A    0.0000
   9435 C          70.0836   22.8488   47.1085 C.2     913      M_A    0.0000
   9436 N          69.9607   23.8726   46.7260 N.3     913      M_A    0.0000
   9437 O          69.8907   22.6656   48.0518 O.2     913      M_A    0.0000
   9438 H          69.8753   20.6274   47.2065 H       913      M_A    0.0000
   9439 H          71.1998   20.9921   47.4638 H       913      M_A    0.0000
   9440 H          69.8011   21.9557   45.6821 H       913      M_A    0.0000
   9441 H          70.4056   24.0966   46.0853 H       913      M_A    0.0000
   9442 H          69.8264   24.4422   47.2844 H       913      M_A    0.0000
   9443 C          71.4901   22.4099   45.6817 C.3     914      M_A    0.0000
   9444 C          71.3549   23.5114   45.1622 C.3     914      M_A    0.0000
   9445 C          72.3394   23.7881   44.4754 C.2     914      M_A    0.0000
   9446 N          72.2864   24.7373   43.9224 N.3     914      M_A    0.0000
   9447 O          73.1505   23.2419   44.4089 O.2     914      M_A    0.0000
   9448 H          72.1648   22.3907   46.2386 H       914      M_A    0.0000
   9449 H          71.6680   21.8091   45.0688 H       914      M_A    0.0000
   9450 H          71.2892   24.1346   45.7750 H       914      M_A    0.0000
   9451 H          71.5541   25.0145   43.7094 H       914      M_A    0.0000
   9452 H          72.8861   24.8710   43.3963 H       914      M_A    0.0000
   9453 C          70.2995   23.5764   44.4453 C.3     915      M_A    0.0000
   9454 C          70.5144   23.9787   43.3081 C.3     915      M_A    0.0000
   9455 C          71.4252   23.3334   42.7871 C.2     915      M_A    0.0000
   9456 N          71.6540   23.5858   41.7414 N.3     915      M_A    0.0000
   9457 O          71.9562   22.6443   43.2387 O.2     915      M_A    0.0000
   9458 H          69.9016   22.7970   44.4477 H       915      M_A    0.0000
   9459 H          69.7555   24.1246   44.8595 H       915      M_A    0.0000
   9460 H          70.7718   24.8165   43.3216 H       915      M_A    0.0000
   9461 H          71.0561   23.8848   41.2813 H       915      M_A    0.0000
   9462 H          72.1808   23.0974   41.3696 H       915      M_A    0.0000
   9463 C          69.4709   23.9180   42.5736 C.3     916      M_A    0.0000
   9464 C          69.5207   24.6657   41.6041 C.3     916      M_A    0.0000
   9465 C          69.2694   24.0471   40.5690 C.2     916      M_A    0.0000
   9466 N          69.2355   24.6475   39.6481 N.3     916      M_A    0.0000
   9467 O          69.1222   23.0796   40.5134 O.2     916      M_A    0.0000
   9468 H          69.3317   23.0864   42.3396 H       916      M_A    0.0000
   9469 H          68.7962   24.1385   43.0879 H       916      M_A    0.0000
   9470 H          70.3269   24.9975   41.5127 H       916      M_A    0.0000
   9471 H          69.0324   25.4306   39.7104 H       916      M_A    0.0000
   9472 H          68.9736   24.2618   38.9871 H       916      M_A    0.0000
   9473 C          68.7187   25.6533   41.7194 C.3     917      M_A    0.0000
   9474 C          69.2585   26.6630   42.1558 C.3     917      M_A    0.0000
   9475 C          70.3444   26.8446   41.6035 C.2     917      M_A    0.0000
   9476 N          70.8808   27.7609   41.8905 N.3     917      M_A    0.0000
   9477 O          70.7573   26.2322   40.9591 O.2     917      M_A    0.0000
   9478 H          68.3270   25.7972   40.9503 H       917      M_A    0.0000
   9479 H          68.0852   25.3919   42.2659 H       917      M_A    0.0000
   9480 H          69.4201   26.5794   43.0132 H       917      M_A    0.0000
   9481 H          70.4431   28.3969   42.1405 H       917      M_A    0.0000
   9482 H          71.5425   27.9306   41.4574 H       917      M_A    0.0000
   9483 C          68.5248   27.6988   42.0110 C.3     918      M_A    0.0000
   9484 C          68.3149   28.2906   43.0632 C.3     918      M_A    0.0000
   9485 C          68.3147   29.5087   42.8803 C.2     918      M_A    0.0000
   9486 N          68.0789   30.1254   43.7600 N.3     918      M_A    0.0000
   9487 O          68.5250   29.9502   42.0308 O.2     918      M_A    0.0000
   9488 H          68.8809   28.2214   41.4063 H       918      M_A    0.0000
   9489 H          67.7684   27.4173   41.6692 H       918      M_A    0.0000
   9490 H          68.9494   28.1207   43.6436 H       918      M_A    0.0000
   9491 H          67.6076   29.8032   44.3366 H       918      M_A    0.0000
   9492 H          67.9807   30.9157   43.6185 H       918      M_A    0.0000
   9493 C          67.2107   27.9369   43.5994 C.3     919      M_A    0.0000
   9494 C          67.2001   28.0773   44.8166 C.3     919      M_A    0.0000
   9495 C          67.5731   27.0437   45.3732 C.2     919      M_A    0.0000
   9496 N          67.6501   27.0907   46.4694 N.3     919      M_A    0.0000
   9497 O          67.7796   26.2016   44.9163 O.2     919      M_A    0.0000
   9498 H          66.5530   28.3666   43.2141 H       919      M_A    0.0000
   9499 H          67.0981   27.0923   43.3940 H       919      M_A    0.0000
   9500 H          66.3869   28.2398   45.1005 H       919      M_A    0.0000
   9501 H          67.8021   27.8111   46.8107 H       919      M_A    0.0000
   9502 H          67.9886   26.4481   46.8254 H       919      M_A    0.0000
   9503 C          67.9317   29.0550   45.1921 C.3     920      M_A    0.0000
   9504 C          67.2977   29.9451   45.7463 C.3     920      M_A    0.0000
   9505 C          67.8412   30.2676   46.8036 C.2     920      M_A    0.0000
   9506 N          67.3739   31.1013   47.3479 N.3     920      M_A    0.0000
   9507 O          68.6280   29.8278   47.1888 O.2     920      M_A    0.0000
   9508 H          68.5804   28.7523   45.6954 H       920      M_A    0.0000
   9509 H          68.3152   29.3662   44.4680 H       920      M_A    0.0000
   9510 H          66.4913   29.6680   45.9491 H       920      M_A    0.0000
   9511 H          66.9638   31.6548   46.9190 H       920      M_A    0.0000
   9512 H          67.7852   31.3776   47.9873 H       920      M_A    0.0000
   9513 C          67.1651   30.9740   45.0007 C.3     921      M_A    0.0000
   9514 C          67.4031   32.0248   45.5841 C.3     921      M_A    0.0000
   9515 C          68.6100   32.1308   45.8067 C.2     921      M_A    0.0000
   9516 N          68.9294   33.0710   46.2797 N.3     921      M_A    0.0000
   9517 O          69.2804   31.4425   45.6132 O.2     921      M_A    0.0000
   9518 H          67.6598   30.8767   44.2855 H       921      M_A    0.0000
   9519 H          66.3347   30.9680   44.7205 H       921      M_A    0.0000
   9520 H          66.9986   32.0436   46.3615 H       921      M_A    0.0000
   9521 H          68.4828   33.7356   46.1476 H       921      M_A    0.0000
   9522 H          69.7286   33.1826   46.3345 H       921      M_A    0.0000
   9523 C          66.9975   33.0410   44.9248 C.3     922      M_A    0.0000
   9524 C          66.6477   33.9713   45.6415 C.3     922      M_A    0.0000
   9525 C          67.5708   34.7736   45.7880 C.2     922      M_A    0.0000
   9526 N          67.3345   35.6744   46.3732 N.3     922      M_A    0.0000
   9527 O          68.4806   34.6535   45.4436 O.2     922      M_A    0.0000
   9528 H          67.6172   33.2808   44.3554 H       922      M_A    0.0000
   9529 H          66.3211   32.7648   44.4406 H       922      M_A    0.0000
   9530 H          66.4341   33.6807   46.4404 H       922      M_A    0.0000
   9531 H          66.5666   35.9367   46.3764 H       922      M_A    0.0000
   9532 H          67.9072   36.2454   46.3852 H       922      M_A    0.0000
   9533 C          65.6235   34.5759   45.1753 C.3     923      M_A    0.0000
   9534 C          65.9109   35.4990   44.4225 C.2     923      M_A    0.0000
   9535 C          65.9701   35.1031   43.2576 C.2     923      M_A    0.0000
   9536 N          66.1685   35.8742   42.4988 N.3     923      M_A    0.0000
   9537 O          65.8746   34.1694   42.9751 O.2     923      M_A    0.0000
   9538 H          65.0947   33.9932   44.7925 H       923      M_A    0.0000
   9539 H          65.1823   34.8807   45.8686 H       923      M_A    0.0000
   9540 H          66.7005   35.8235   44.6212 H       923      M_A    0.0000
   9541 H          65.9312   36.6341   42.6559 H       923      M_A    0.0000
   9542 H          66.1085   35.6330   41.7291 H       923      M_A    0.0000
   9543 C          82.7222   17.5968   42.6153 C.2     924      M_A    0.0000
   9544 C          81.4351   17.1695   42.3933 C.3     924      M_A    0.0000
   9545 C          80.8655   16.7187   43.5685 C.2     924      M_A    0.0000
   9546 N          79.6851   16.3683   43.4938 N.3     924      M_A    0.0000
   9547 O          81.3890   16.6336   44.5314 O.2     924      M_A    0.0000
   9548 H          82.7493   18.4226   43.1450 H       924      M_A    0.0000
   9549 H          83.1576   17.8114   41.7604 H       924      M_A    0.0000
   9550 H          81.4260   16.4143   41.7639 H       924      M_A    0.0000
   9551 H          79.1632   16.7553   42.8564 H       924      M_A    0.0000
   9552 H          79.2798   16.1794   44.2832 H       924      M_A    0.0000
   9553 C          80.6172   18.2004   41.8264 C.3     925      M_A    0.0000
   9554 C          80.8989   18.4468   40.5040 C.3     925      M_A    0.0000
   9555 C          80.6403   17.3269   39.7375 C.2     925      M_A    0.0000
   9556 N          80.8009   17.4589   38.5216 N.3     925      M_A    0.0000
   9557 O          80.3319   16.3487   40.1333 O.2     925      M_A    0.0000
   9558 H          79.6720   17.9756   41.9654 H       925      M_A    0.0000
   9559 H          80.7830   19.0081   42.3617 H       925      M_A    0.0000
   9560 H          81.8520   18.6581   40.3879 H       925      M_A    0.0000
   9561 H          80.6926   18.2885   38.1631 H       925      M_A    0.0000
   9562 H          80.5252   16.7622   38.0100 H       925      M_A    0.0000
   9563 C          80.1552   19.5607   39.9951 C.3     926      M_A    0.0000
   9564 C          79.3227   19.2238   38.9548 C.3     926      M_A    0.0000
   9565 C          79.6961   18.0103   38.4101 C.2     926      M_A    0.0000
   9566 N          78.9744   17.5823   37.5057 N.3     926      M_A    0.0000
   9567 O          80.5818   17.4309   38.7072 O.2     926      M_A    0.0000
   9568 H          79.6680   19.9875   40.7325 H       926      M_A    0.0000
   9569 H          80.8193   20.2202   39.6944 H       926      M_A    0.0000
   9570 H          79.3832   19.8903   38.2347 H       926      M_A    0.0000
   9571 H          78.0986   17.8299   37.5036 H       926      M_A    0.0000
   9572 H          79.1528   16.7379   37.2259 H       926      M_A    0.0000
   9573 C          77.9502   19.1667   39.3621 C.3     927      M_A    0.0000
   9574 C          77.4818   17.8823   39.5024 C.3     927      M_A    0.0000
   9575 C          78.0576   17.2748   40.6015 C.2     927      M_A    0.0000
   9576 N          77.6588   16.1355   40.8564 N.3     927      M_A    0.0000
   9577 O          78.8414   17.7204   41.2305 O.2     927      M_A    0.0000
   9578 H          77.8351   19.6918   40.1833 H       927      M_A    0.0000
   9579 H          77.4377   19.6376   38.6679 H       927      M_A    0.0000
   9580 H          77.7220   17.3400   38.7183 H       927      M_A    0.0000
   9581 H          76.8125   15.9125   40.6065 H       927      M_A    0.0000
   9582 H          77.9523   15.7814   41.6383 H       927      M_A    0.0000
   9583 C          76.0546   17.8412   39.6221 C.3     928      M_A    0.0000
   9584 C          75.4363   17.2959   38.5226 C.3     928      M_A    0.0000
   9585 C          76.3398   17.1342   37.4900 C.2     928      M_A    0.0000
   9586 N          75.9014   16.5926   36.4721 N.3     928      M_A    0.0000
   9587 O          77.3869   17.4685   37.5096 O.2     928      M_A    0.0000
   9588 H          75.8136   17.3723   40.4499 H       928      M_A    0.0000
   9589 H          75.7624   18.7717   39.7453 H       928      M_A    0.0000
   9590 H          74.7295   17.8940   38.1922 H       928      M_A    0.0000
   9591 H          75.2067   16.0114   36.5618 H       928      M_A    0.0000
   9592 H          76.5180   16.3857   35.8395 H       928      M_A    0.0000
   9593 C          74.8182   16.0385   38.8227 C.3     929      M_A    0.0000
   9594 C          75.6777   14.9727   38.7037 C.3     929      M_A    0.0000
   9595 C          76.4580   15.1045   37.5713 C.2     929      M_A    0.0000
   9596 N          77.3108   14.2295   37.4013 N.3     929      M_A    0.0000
   9597 O          76.3545   15.9033   36.8231 O.2     929      M_A    0.0000
   9598 H          74.4100   16.0840   39.7141 H       929      M_A    0.0000
   9599 H          74.0722   15.9411   38.1900 H       929      M_A    0.0000
   9600 H          75.1751   14.1332   38.6077 H       929      M_A    0.0000
   9601 H          77.6455   13.8096   38.1362 H       929      M_A    0.0000
   9602 H          77.8946   14.3753   36.7223 H       929      M_A    0.0000
   9603 C          76.5194   14.8306   39.8545 C.3     930      M_A    0.0000
   9604 C          76.5223   13.5554   40.3669 C.2     930      M_A    0.0000
   9605 C          77.5360   12.8081   39.7989 C.2     930      M_A    0.0000
   9606 N          77.6679   11.6617   40.2350 N.3     930      M_A    0.0000
   9607 O          78.1975   13.1526   38.9912 O.2     930      M_A    0.0000
   9608 H          77.4241   15.1399   39.6328 H       930      M_A    0.0000
   9609 H          76.1763   15.4619   40.5255 H       930      M_A    0.0000
   9610 H          75.6782   13.0973   40.1569 H       930      M_A    0.0000
   9611 H          77.4091   11.4974   41.0920 H       930      M_A    0.0000
   9612 H          78.3998   11.2115   39.9440 H       930      M_A    0.0000
   9613 C          53.6985   15.1273   36.7003 C.2     931      M_A    0.0000
   9614 C          54.2863   16.1613   36.0268 C.3     931      M_A    0.0000
   9615 C          54.2963   17.2962   36.8015 C.2     931      M_A    0.0000
   9616 N          54.8589   18.2714   36.3138 N.3     931      M_A    0.0000
   9617 O          53.8289   17.3885   37.7856 O.2     931      M_A    0.0000
   9618 H          53.6986   15.2725   37.6656 H       931      M_A    0.0000
   9619 H          54.2033   14.3029   36.5539 H       931      M_A    0.0000
   9620 H          53.7810   16.3749   35.2174 H       931      M_A    0.0000
   9621 H          55.5261   18.1250   35.7198 H       931      M_A    0.0000
   9622 H          54.9630   18.9791   36.8639 H       931      M_A    0.0000
   9623 C          55.6156   15.8472   35.6206 C.3     932      M_A    0.0000
   9624 C          56.3425   15.2255   36.5971 C.3     932      M_A    0.0000
   9625 C          56.2939   13.8615   36.4383 C.2     932      M_A    0.0000
   9626 N          56.9663   13.2070   37.2288 N.3     932      M_A    0.0000
   9627 O          55.6941   13.3378   35.6889 O.2     932      M_A    0.0000
   9628 H          55.5844   15.3227   34.7979 H       932      M_A    0.0000
   9629 H          56.0359   16.6966   35.3804 H       932      M_A    0.0000
   9630 H          55.9700   15.4218   37.4796 H       932      M_A    0.0000
   9631 H          57.7047   13.5938   37.5818 H       932      M_A    0.0000
   9632 H          57.0231   12.3231   37.0564 H       932      M_A    0.0000
   9633 C          57.7002   15.6581   36.6094 C.3     933      M_A    0.0000
   9634 C          58.4165   15.1482   37.6560 C.3     933      M_A    0.0000
   9635 C          58.0406   13.8511   37.9097 C.2     933      M_A    0.0000
   9636 N          58.6674   13.2761   38.7939 N.3     933      M_A    0.0000
   9637 O          57.2275   13.3230   37.4042 O.2     933      M_A    0.0000
   9638 H          58.1113   15.4497   35.7489 H       933      M_A    0.0000
   9639 H          57.6756   16.6339   36.6648 H       933      M_A    0.0000
   9640 H          58.2428   15.6586   38.4717 H       933      M_A    0.0000
   9641 H          59.5201   13.5372   38.9499 H       933      M_A    0.0000
   9642 H          58.4976   12.3945   38.8843 H       933      M_A    0.0000
   9643 C          59.8206   15.2020   37.4188 C.3     934      M_A    0.0000
   9644 C          60.5581   15.2434   38.5689 C.3     934      M_A    0.0000
   9645 C          61.7053   14.4996   38.4318 C.2     934      M_A    0.0000
   9646 N          62.4727   14.5193   39.3890 N.3     934      M_A    0.0000
   9647 O          61.9587   13.8917   37.5591 O.2     934      M_A    0.0000
   9648 H          60.0783   14.4550   36.8457 H       934      M_A    0.0000
   9649 H          59.9779   16.0102   36.8914 H       934      M_A    0.0000
   9650 H          60.0557   14.8555   39.3127 H       934      M_A    0.0000
   9651 H          62.4711   15.2518   39.9209 H       934      M_A    0.0000
   9652 H          63.2731   14.1241   39.2573 H       934      M_A    0.0000
   9653 C          60.8939   16.5775   38.9404 C.3     935      M_A    0.0000
   9654 C          61.1470   16.7151   40.2765 C.3     935      M_A    0.0000
   9655 C          61.6875   15.5588   40.7854 C.2     935      M_A    0.0000
   9656 N          62.0109   15.5953   41.9684 N.3     935      M_A    0.0000
   9657 O          61.8222   14.6295   40.2253 O.2     935      M_A    0.0000
   9658 H          61.6415   16.8846   38.3930 H       935      M_A    0.0000
   9659 H          60.1303   17.1325   38.6857 H       935      M_A    0.0000
   9660 H          60.3178   16.8807   40.7676 H       935      M_A    0.0000
   9661 H          62.2442   16.3955   42.3214 H       935      M_A    0.0000
   9662 H          62.4657   14.8777   42.2723 H       935      M_A    0.0000
   9663 C          62.0190   17.8098   40.5450 C.3     936      M_A    0.0000
   9664 C          62.0042   18.1990   41.8552 C.3     936      M_A    0.0000
   9665 C          62.3931   17.1627   42.6694 C.2     936      M_A    0.0000
   9666 N          62.4744   17.4240   43.8654 N.3     936      M_A    0.0000
   9667 O          62.6062   16.1449   42.3314 O.2     936      M_A    0.0000
   9668 H          62.9189   17.5856   40.2402 H       936      M_A    0.0000
   9669 H          61.7187   18.5447   39.9743 H       936      M_A    0.0000
   9670 H          61.0995   18.4502   42.1283 H       936      M_A    0.0000
   9671 H          62.6589   18.2778   44.1030 H       936      M_A    0.0000
   9672 H          62.8351   16.7793   44.3835 H       936      M_A    0.0000
   9673 C          62.8408   19.3293   42.0861 C.3     937      M_A    0.0000
   9674 C          62.1440   20.4473   42.4505 C.3     937      M_A    0.0000
   9675 C          61.1109   20.1167   43.2940 C.2     937      M_A    0.0000
   9676 N          60.4565   21.0575   43.7322 N.3     937      M_A    0.0000
   9677 O          60.8298   19.0975   43.5727 O.2     937      M_A    0.0000
   9678 H          63.5242   19.0941   42.7423 H       937      M_A    0.0000
   9679 H          63.3187   19.4912   41.2486 H       937      M_A    0.0000
   9680 H          61.7446   20.8736   41.6664 H       937      M_A    0.0000
   9681 H          60.8675   21.8598   43.8155 H       937      M_A    0.0000
   9682 H          59.8524   20.8510   44.3698 H       937      M_A    0.0000
   9683 C          62.9801   21.4178   43.0750 C.3     938      M_A    0.0000
   9684 C          62.4461   21.9250   44.2265 C.3     938      M_A    0.0000
   9685 C          61.0735   21.8807   44.1806 C.2     938      M_A    0.0000
   9686 N          60.4923   22.2566   45.1937 N.3     938      M_A    0.0000
   9687 O          60.4843   21.5627   43.3162 O.2     938      M_A    0.0000
   9688 H          63.8652   21.0328   43.2208 H       938      M_A    0.0000
   9689 H          63.1042   22.1333   42.4203 H       938      M_A    0.0000
   9690 H          62.6961   22.8639   44.3362 H       938      M_A    0.0000
   9691 H          60.9200   22.1698   45.9868 H       938      M_A    0.0000
   9692 H          59.6000   22.1236   45.2054 H       938      M_A    0.0000
   9693 C          62.9092   21.2302   45.3813 C.3     939      M_A    0.0000
   9694 C          62.0311   21.2827   46.4274 C.3     939      M_A    0.0000
   9695 C          61.8000   22.5859   46.7966 C.2     939      M_A    0.0000
   9696 N          60.9755   22.7502   47.6902 N.3     939      M_A    0.0000
   9697 O          62.3060   23.4575   46.3727 O.2     939      M_A    0.0000
   9698 H          63.1312   20.3118   45.1358 H       939      M_A    0.0000
   9699 H          63.7548   21.6516   45.6329 H       939      M_A    0.0000
   9700 H          62.4015   20.8277   47.2096 H       939      M_A    0.0000
   9701 H          60.3209   22.1321   47.7844 H       939      M_A    0.0000
   9702 H          60.7422   23.6061   47.8553 H       939      M_A    0.0000
   9703 C          60.7941   20.6460   46.1188 C.3     940      M_A    0.0000
   9704 C          60.5759   19.5132   46.8520 C.3     940      M_A    0.0000
   9705 C          59.2287   19.2971   47.0143 C.2     940      M_A    0.0000
   9706 N          58.9199   18.2686   47.6077 N.3     940      M_A    0.0000
   9707 O          58.4393   19.9750   46.6782 O.2     940      M_A    0.0000
   9708 H          60.0678   21.2908   46.2171 H       940      M_A    0.0000
   9709 H          60.8298   20.4265   45.1667 H       940      M_A    0.0000
   9710 H          60.9585   19.6048   47.7471 H       940      M_A    0.0000
   9711 H          59.4873   17.5646   47.5629 H       940      M_A    0.0000
   9712 H          58.0395   18.0710   47.6168 H       940      M_A    0.0000
   9713 C          61.1761   18.3668   46.2550 C.3     941      M_A    0.0000
   9714 C          62.0527   17.7262   47.0853 C.3     941      M_A    0.0000
   9715 C          61.9620   16.3648   46.9226 C.2     941      M_A    0.0000
   9716 N          62.7526   15.6941   47.5788 N.3     941      M_A    0.0000
   9717 O          61.2365   15.8561   46.2820 O.2     941      M_A    0.0000
   9718 H          60.4753   17.7692   45.9317 H       941      M_A    0.0000
   9719 H          61.6434   18.6868   45.4580 H       941      M_A    0.0000
   9720 H          61.8397   17.9149   48.0207 H       941      M_A    0.0000
   9721 H          63.5451   16.0696   47.8037 H       941      M_A    0.0000
   9722 H          62.7689   14.8120   47.3898 H       941      M_A    0.0000
   9723 C          63.3973   18.1457   46.8687 C.3     942      M_A    0.0000
   9724 C          64.1163   17.2698   46.1043 C.3     942      M_A    0.0000
   9725 C          63.8210   17.4384   44.7730 C.2     942      M_A    0.0000
   9726 N          64.4597   16.7412   43.9912 N.3     942      M_A    0.0000
   9727 O          63.0596   18.1178   44.3801 O.2     942      M_A    0.0000
   9728 H          63.3958   19.0455   46.4903 H       942      M_A    0.0000
   9729 H          63.8037   18.2286   47.7541 H       942      M_A    0.0000
   9730 H          63.8860   16.3471   46.3313 H       942      M_A    0.0000
   9731 H          65.2883   16.4734   44.2389 H       942      M_A    0.0000
   9732 H          64.3468   16.9298   43.1161 H       942      M_A    0.0000
   9733 C          65.5198   17.4131   46.3052 C.3     943      M_A    0.0000
   9734 C          66.1611   17.9713   45.2349 C.3     943      M_A    0.0000
   9735 C          67.0670   18.9150   45.6553 C.2     943      M_A    0.0000
   9736 N          67.7440   19.4358   44.7745 N.3     943      M_A    0.0000
   9737 O          67.2022   19.2376   46.6912 O.2     943      M_A    0.0000
   9738 H          65.6768   17.9146   47.1278 H       943      M_A    0.0000
   9739 H          65.8655   16.5136   46.4704 H       943      M_A    0.0000
   9740 H          65.5227   18.4300   44.6534 H       943      M_A    0.0000
   9741 H          67.9074   18.9569   44.0239 H       943      M_A    0.0000
   9742 H          68.4124   19.9709   45.0593 H       943      M_A    0.0000
   9743 C          66.8240   16.9922   44.4395 C.3     944      M_A    0.0000
   9744 C          67.4005   17.5144   43.3155 C.3     944      M_A    0.0000
   9745 C          68.3902   18.4060   43.6523 C.2     944      M_A    0.0000
   9746 N          69.0166   18.8889   42.7143 N.3     944      M_A    0.0000
   9747 O          68.6320   18.7200   44.6714 O.2     944      M_A    0.0000
   9748 H          67.4697   16.5127   44.9927 H       944      M_A    0.0000
   9749 H          66.1438   16.3349   44.1919 H       944      M_A    0.0000
   9750 H          66.7408   18.0083   42.7893 H       944      M_A    0.0000
   9751 H          69.0878   18.4021   41.9545 H       944      M_A    0.0000
   9752 H          69.7357   19.3858   42.9382 H       944      M_A    0.0000
   9753 C          67.9370   16.5004   42.4701 C.3     945      M_A    0.0000
   9754 C          68.5681   17.0008   41.3657 C.3     945      M_A    0.0000
   9755 C          68.8278   15.9972   40.4638 C.2     945      M_A    0.0000
   9756 N          69.3391   16.3487   39.4053 N.3     945      M_A    0.0000
   9757 O          68.6342   14.9346   40.6342 O.2     945      M_A    0.0000
   9758 H          68.5221   15.9214   42.9947 H       945      M_A    0.0000
   9759 H          67.1813   15.9422   42.1993 H       945      M_A    0.0000
   9760 H          69.4301   17.3920   41.6108 H       945      M_A    0.0000
   9761 H          69.1725   17.1881   39.1102 H       945      M_A    0.0000
   9762 H          69.4069   15.7096   38.7720 H       945      M_A    0.0000
   9763 C          67.8066   18.0266   40.7343 C.3     946      M_A    0.0000
   9764 C          68.4019   19.2552   40.8010 C.3     946      M_A    0.0000
   9765 C          68.0866   20.0035   39.6925 C.2     946      M_A    0.0000
   9766 N          68.5211   21.1508   39.6807 N.3     946      M_A    0.0000
   9767 O          67.5096   19.6442   38.8361 O.2     946      M_A    0.0000
   9768 H          67.6136   17.7632   39.8145 H       946      M_A    0.0000
   9769 H          66.9435   18.0479   41.1931 H       946      M_A    0.0000
   9770 H          69.3754   19.1646   40.8145 H       946      M_A    0.0000
   9771 H          68.6637   21.5602   40.4754 H       946      M_A    0.0000
   9772 H          68.2231   21.6755   39.0099 H       946      M_A    0.0000
   9773 C          68.0306   19.9653   41.9795 C.3     947      M_A    0.0000
   9774 C          66.6979   20.2648   42.0282 C.3     947      M_A    0.0000
   9775 C          66.4363   21.1282   43.0646 C.2     947      M_A    0.0000
   9776 N          65.2748   21.5115   43.1609 N.3     947      M_A    0.0000
   9777 O          67.1711   21.4667   43.8002 O.2     947      M_A    0.0000
   9778 H          68.3210   19.4609   42.7631 H       947      M_A    0.0000
   9779 H          68.5586   20.7883   41.9804 H       947      M_A    0.0000
   9780 H          66.1705   19.4578   42.1913 H       947      M_A    0.0000
   9781 H          64.7744   21.5469   42.4074 H       947      M_A    0.0000
   9782 H          65.1260   22.1613   43.7691 H       947      M_A    0.0000
   9783 C          66.2324   20.8298   40.8054 C.3     948      M_A    0.0000
   9784 C          65.8890   22.1478   40.9196 C.3     948      M_A    0.0000
   9785 C          64.9691   22.3200   41.9258 C.2     948      M_A    0.0000
   9786 N          64.6378   23.4789   42.1546 N.3     948      M_A    0.0000
   9787 O          64.5109   21.5118   42.5023 O.2     948      M_A    0.0000
   9788 H          66.9016   20.6851   40.1097 H       948      M_A    0.0000
   9789 H          65.4527   20.3027   40.5403 H       948      M_A    0.0000
   9790 H          65.4705   22.4661   40.0952 H       948      M_A    0.0000
   9791 H          65.2324   24.1360   41.9700 H       948      M_A    0.0000
   9792 H          64.1218   23.6018   42.8846 H       948      M_A    0.0000
   9793 C          67.0231   22.9763   41.1609 C.3     949      M_A    0.0000
   9794 C          67.4712   23.6132   40.0376 C.3     949      M_A    0.0000
   9795 C          67.3818   24.9760   40.1892 C.2     949      M_A    0.0000
   9796 N          67.8174   25.6471   39.2590 N.3     949      M_A    0.0000
   9797 O          66.9395   25.4840   41.0504 O.2     949      M_A    0.0000
   9798 H          66.8152   23.6040   41.8789 H       949      M_A    0.0000
   9799 H          67.7208   22.3887   41.5130 H       949      M_A    0.0000
   9800 H          66.9193   23.3768   39.2658 H       949      M_A    0.0000
   9801 H          68.4769   25.2923   38.7504 H       949      M_A    0.0000
   9802 H          67.8610   26.5365   39.4046 H       949      M_A    0.0000
   9803 C          68.8130   23.2540   39.7192 C.3     950      M_A    0.0000
   9804 C          69.6370   24.3344   39.5703 C.3     950      M_A    0.0000
   9805 C          70.7444   24.2093   40.3741 C.2     950      M_A    0.0000
   9806 N          71.5828   25.0992   40.2713 N.3     950      M_A    0.0000
   9807 O          70.9096   23.4031   41.0940 O.2     950      M_A    0.0000
   9808 H          69.1463   22.6297   40.3916 H       950      M_A    0.0000
   9809 H          68.7696   22.7487   38.8833 H       950      M_A    0.0000
   9810 H          69.1799   25.1547   39.8427 H       950      M_A    0.0000
   9811 H          71.6467   25.5346   39.4802 H       950      M_A    0.0000
   9812 H          72.3568   24.9609   40.7139 H       950      M_A    0.0000
   9813 C          70.0455   24.5119   38.2166 C.3     951      M_A    0.0000
   9814 C          71.3288   24.1022   37.9851 C.3     951      M_A    0.0000
   9815 C          71.8816   23.5815   39.1303 C.2     951      M_A    0.0000
   9816 N          73.0151   23.1256   39.0174 N.3     951      M_A    0.0000
   9817 O          71.3983   23.5690   40.1110 O.2     951      M_A    0.0000
   9818 H          69.4074   24.0660   37.6276 H       951      M_A    0.0000
   9819 H          69.9604   25.4676   38.0286 H       951      M_A    0.0000
   9820 H          71.8879   24.8589   37.7190 H       951      M_A    0.0000
   9821 H          73.2661   22.8044   38.2092 H       951      M_A    0.0000
   9822 H          73.3337   22.6854   39.7377 H       951      M_A    0.0000
   9823 C          71.4011   23.1386   36.9377 C.3     952      M_A    0.0000
   9824 C          72.3620   23.4264   36.0091 C.3     952      M_A    0.0000
   9825 C          72.8342   24.7047   36.1857 C.2     952      M_A    0.0000
   9826 N          73.7477   25.0448   35.4405 N.3     952      M_A    0.0000
   9827 O          72.4436   25.4235   36.9110 O.2     952      M_A    0.0000
   9828 H          71.5217   22.2511   37.3257 H       952      M_A    0.0000
   9829 H          70.5197   23.1281   36.5147 H       952      M_A    0.0000
   9830 H          71.9901   23.3836   35.1058 H       952      M_A    0.0000
   9831 H          74.2977   24.4012   35.1200 H       952      M_A    0.0000
   9832 H          74.1313   25.8395   35.6288 H       952      M_A    0.0000
   9833 C          73.4471   22.5039   36.0599 C.3     953      M_A    0.0000
   9834 C          73.8507   22.0815   34.8241 C.3     953      M_A    0.0000
   9835 C          74.6414   23.0324   34.2252 C.2     953      M_A    0.0000
   9836 N          75.1101   22.7273   33.1332 N.3     953      M_A    0.0000
   9837 O          74.8542   24.0224   34.6378 O.2     953      M_A    0.0000
   9838 H          74.1804   22.8986   36.5690 H       953      M_A    0.0000
   9839 H          73.1342   21.7428   36.5878 H       953      M_A    0.0000
   9840 H          73.0791   21.9449   34.2393 H       953      M_A    0.0000
   9841 H          75.2508   21.8499   32.9604 H       953      M_A    0.0000
   9842 H          75.7159   23.3027   32.7924 H       953      M_A    0.0000
   9843 C          74.5541   20.8437   34.8862 C.3     954      M_A    0.0000
   9844 C          73.8304   19.7902   34.4018 C.3     954      M_A    0.0000
   9845 C          74.6499   18.7140   34.1606 C.2     954      M_A    0.0000
   9846 N          74.0902   17.6905   33.7802 N.3     954      M_A    0.0000
   9847 O          75.7386   18.7190   34.2616 O.2     954      M_A    0.0000
   9848 H          75.4119   20.9388   34.4301 H       954      M_A    0.0000
   9849 H          74.7673   20.6976   35.8291 H       954      M_A    0.0000
   9850 H          73.4117   20.0244   33.5498 H       954      M_A    0.0000
   9851 H          73.2315   17.5557   34.0332 H       954      M_A    0.0000
   9852 H          74.6108   16.9553   33.7292 H       954      M_A    0.0000
   9853 C          72.7851   19.4064   35.2911 C.3     955      M_A    0.0000
   9854 C          72.8649   18.0986   35.6804 C.3     955      M_A    0.0000
   9855 C          73.9183   17.9170   36.5438 C.2     955      M_A    0.0000
   9856 N          74.0433   16.7867   37.0043 N.3     955      M_A    0.0000
   9857 O          74.6435   18.6873   36.8199 O.2     955      M_A    0.0000
   9858 H          72.7732   20.0151   36.0541 H       955      M_A    0.0000
   9859 H          71.9474   19.5621   34.8116 H       955      M_A    0.0000
   9860 H          73.0274   17.5202   34.9089 H       955      M_A    0.0000
   9861 H          73.3007   16.2755   37.0853 H       955      M_A    0.0000
   9862 H          74.6634   16.6946   37.6534 H       955      M_A    0.0000
   9863 C          71.6598   17.6497   36.2944 C.3     956      M_A    0.0000
   9864 C          71.8653   17.0510   37.5059 C.3     956      M_A    0.0000
   9865 C          72.4451   17.9326   38.3860 C.2     956      M_A    0.0000
   9866 N          72.6172   17.5141   39.5264 N.3     956      M_A    0.0000
   9867 O          72.7735   18.9450   38.1355 O.2     956      M_A    0.0000
   9868 H          71.0339   18.3961   36.3568 H       956      M_A    0.0000
   9869 H          71.2561   17.0136   35.6712 H       956      M_A    0.0000
   9870 H          72.4793   16.2954   37.4154 H       956      M_A    0.0000
   9871 H          72.0567   16.8731   39.8338 H       956      M_A    0.0000
   9872 H          72.8933   18.1251   40.1303 H       956      M_A    0.0000
   9873 C          70.6557   16.5439   38.0631 C.3     957      M_A    0.0000
   9874 C          70.5981   15.1783   38.0678 C.3     957      M_A    0.0000
   9875 C          71.6285   14.6506   37.3277 C.2     957      M_A    0.0000
   9876 N          71.7066   13.4262   37.3168 N.3     957      M_A    0.0000
   9877 O          72.3476   15.2349   36.7471 O.2     957      M_A    0.0000
   9878 H          70.5320   16.9183   38.9560 H       957      M_A    0.0000
   9879 H          69.9302   16.9074   37.5178 H       957      M_A    0.0000
   9880 H          69.7664   14.8685   37.6574 H       957      M_A    0.0000
   9881 H          71.3872   12.9729   38.0323 H       957      M_A    0.0000
   9882 H          72.4442   13.0844   36.9252 H       957      M_A    0.0000
   9883 C          70.6367   14.6467   39.3895 C.3     958      M_A    0.0000
   9884 C          71.9078   14.4411   39.8483 C.3     958      M_A    0.0000
   9885 C          72.7811   15.3219   39.2571 C.2     958      M_A    0.0000
   9886 N          73.9434   15.2642   39.6457 N.3     958      M_A    0.0000
   9887 O          72.5179   16.0336   38.4700 O.2     958      M_A    0.0000
   9888 H          70.1226   15.2259   39.9836 H       958      M_A    0.0000
   9889 H          70.1515   13.7985   39.3572 H       958      M_A    0.0000
   9890 H          72.2139   13.5412   39.6192 H       958      M_A    0.0000
   9891 H          74.0962   14.9761   40.4902 H       958      M_A    0.0000
   9892 H          74.4909   15.9134   39.3408 H       958      M_A    0.0000
   9893 C          71.9903   14.5637   41.2657 C.3     959      M_A    0.0000
   9894 C          72.8903   13.7019   41.8275 C.2     959      M_A    0.0000
   9895 C          74.1285   14.2908   41.9179 C.2     959      M_A    0.0000
   9896 N          74.9994   13.6230   42.4663 N.3     959      M_A    0.0000
   9897 O          74.3843   15.2780   41.5234 O.2     959      M_A    0.0000
   9898 H          72.1801   15.4928   41.4970 H       959      M_A    0.0000
   9899 H          71.0931   14.3806   41.6085 H       959      M_A    0.0000
   9900 H          72.9953   12.9046   41.2712 H       959      M_A    0.0000
   9901 H          74.7427   13.0155   43.0864 H       959      M_A    0.0000
   9902 H          75.7784   14.0498   42.6250 H       959      M_A    0.0000
   9903 C          76.9969   45.1050   12.7442 C.2     960      M_A    0.0000
   9904 C          75.9027   44.1634   12.5040 C.3     960      M_A    0.0000
   9905 C          76.4235   42.7956   12.3553 C.2     960      M_A    0.0000
   9906 N          75.5214   41.8533   12.2011 N.3     960      M_A    0.0000
   9907 O          77.5577   42.5062   12.3419 O.2     960      M_A    0.0000
   9908 H          77.1751   45.2462   13.7642 H       960      M_A    0.0000
   9909 H          76.7480   46.0479   12.3638 H       960      M_A    0.0000
   9910 H          75.4055   44.3975   11.6130 H       960      M_A    0.0000
   9911 H          74.6428   41.9964   12.5843 H       960      M_A    0.0000
   9912 H          75.8542   40.9467   12.2232 H       960      M_A    0.0000
   9913 C          74.8634   44.1977   13.6203 C.3     961      M_A    0.0000
   9914 C          74.1737   45.4842   13.7241 C.3     961      M_A    0.0000
   9915 C          72.9781   45.4983   12.8670 C.2     961      M_A    0.0000
   9916 N          72.2411   46.5838   12.9306 N.3     961      M_A    0.0000
   9917 O          72.6652   44.6392   12.1361 O.2     961      M_A    0.0000
   9918 H          74.1952   43.4044   13.4923 H       961      M_A    0.0000
   9919 H          75.3805   43.9961   14.5078 H       961      M_A    0.0000
   9920 H          74.7932   46.2608   13.3939 H       961      M_A    0.0000
   9921 H          72.2501   47.0931   13.7551 H       961      M_A    0.0000
   9922 H          71.3974   46.5457   12.4616 H       961      M_A    0.0000
   9923 C          73.7776   45.8064   15.1618 C.3     962      M_A    0.0000
   9924 C          73.0858   47.0891   15.2935 C.3     962      M_A    0.0000
   9925 C          72.9149   47.4389   16.7122 C.2     962      M_A    0.0000
   9926 N          72.3626   48.6065   16.9513 N.3     962      M_A    0.0000
   9927 O          73.2088   46.7524   17.6137 O.2     962      M_A    0.0000
   9928 H          73.2138   45.0159   15.5483 H       962      M_A    0.0000
   9929 H          74.6667   45.8207   15.7140 H       962      M_A    0.0000
   9930 H          72.1271   47.0340   14.8767 H       962      M_A    0.0000
   9931 H          72.4748   49.3074   16.2915 H       962      M_A    0.0000
   9932 H          72.3592   48.8872   17.8757 H       962      M_A    0.0000
   9933 C          73.8242   48.2136   14.5737 C.3     963      M_A    0.0000
   9934 C          73.8881   49.4504   15.3534 C.3     963      M_A    0.0000
   9935 C          74.8120   49.2969   16.4879 C.2     963      M_A    0.0000
   9936 N          74.9998   50.3697   17.2223 N.3     963      M_A    0.0000
   9937 O          75.3547   48.3025   16.7828 O.2     963      M_A    0.0000
   9938 H          74.7734   47.8775   14.2940 H       963      M_A    0.0000
   9939 H          73.3046   48.3799   13.6804 H       963      M_A    0.0000
   9940 H          72.9492   49.6803   15.7552 H       963      M_A    0.0000
   9941 H          74.8937   51.2355   16.7998 H       963      M_A    0.0000
   9942 H          75.6933   50.3035   17.8915 H       963      M_A    0.0000
   9943 C          74.3158   50.6417   14.5017 C.3     964      M_A    0.0000
   9944 C          74.2314   51.9172   15.2141 C.3     964      M_A    0.0000
   9945 C          74.4803   51.7223   16.6508 C.2     964      M_A    0.0000
   9946 N          74.4951   52.8132   17.3823 N.3     964      M_A    0.0000
   9947 O          74.6371   50.6854   17.1710 O.2     964      M_A    0.0000
   9948 H          75.2743   50.4673   14.1233 H       964      M_A    0.0000
   9949 H          73.6779   50.6521   13.6718 H       964      M_A    0.0000
   9950 H          73.2714   52.3250   15.1248 H       964      M_A    0.0000
   9951 H          74.7535   53.6443   16.9560 H       964      M_A    0.0000
   9952 H          74.7752   52.6990   18.2998 H       964      M_A    0.0000
   9953 C          75.2101   52.9479   14.6595 C.3     965      M_A    0.0000
   9954 C          74.9789   54.2969   15.1774 C.3     965      M_A    0.0000
   9955 C          75.9404   55.2447   14.5933 C.2     965      M_A    0.0000
   9956 N          75.7846   56.5029   14.9370 N.3     965      M_A    0.0000
   9957 O          76.8238   54.9535   13.8825 O.2     965      M_A    0.0000
   9958 H          76.1877   52.6230   14.8356 H       965      M_A    0.0000
   9959 H          75.0879   52.9375   13.6199 H       965      M_A    0.0000
   9960 H          75.1198   54.3214   16.2144 H       965      M_A    0.0000
   9961 H          74.8945   56.8034   15.1752 H       965      M_A    0.0000
   9962 H          76.3371   57.1383   14.4636 H       965      M_A    0.0000
   9963 C          73.5564   54.7773   14.9063 C.3     966      M_A    0.0000
   9964 C          73.1248   55.8382   15.8172 C.3     966      M_A    0.0000
   9965 C          74.1904   56.8384   15.9848 C.2     966      M_A    0.0000
   9966 N          73.8894   57.8757   16.7325 N.3     966      M_A    0.0000
   9967 O          75.2651   56.7584   15.5275 O.2     966      M_A    0.0000
   9968 H          73.4756   55.0644   13.9047 H       966      M_A    0.0000
   9969 H          72.9388   53.9391   15.0146 H       966      M_A    0.0000
   9970 H          72.9232   55.4472   16.7672 H       966      M_A    0.0000
   9971 H          72.9604   58.1470   16.7826 H       966      M_A    0.0000
   9972 H          74.5431   58.5869   16.7455 H       966      M_A    0.0000
   9973 C          71.8501   56.5233   15.3341 C.3     967      M_A    0.0000
   9974 C          70.8888   56.7724   16.4089 C.3     967      M_A    0.0000
   9975 C          70.2179   58.0665   16.2103 C.2     967      M_A    0.0000
   9976 N          69.2826   58.3662   17.0826 N.3     967      M_A    0.0000
   9977 O          70.4743   58.8334   15.3639 O.2     967      M_A    0.0000
   9978 H          72.1031   57.3997   14.8241 H       967      M_A    0.0000
   9979 H          71.4292   55.8865   14.6177 H       967      M_A    0.0000
   9980 H          71.3766   56.8220   17.3339 H       967      M_A    0.0000
   9981 H          68.8086   57.6374   17.5110 H       967      M_A    0.0000
   9982 H          68.7624   59.1558   16.8848 H       967      M_A    0.0000
   9983 C          69.8451   55.6643   16.5108 C.3     968      M_A    0.0000
   9984 C          68.8961   55.8676   17.6061 C.3     968      M_A    0.0000
   9985 C          68.4578   57.2711   17.6540 C.2     968      M_A    0.0000
   9986 N          67.5509   57.5569   18.5603 N.3     968      M_A    0.0000
   9987 O          68.8717   58.1280   16.9723 O.2     968      M_A    0.0000
   9988 H          69.3631   55.5603   15.5894 H       968      M_A    0.0000
   9989 H          70.3765   54.7745   16.6580 H       968      M_A    0.0000
   9990 H          69.3479   55.6589   18.5271 H       968      M_A    0.0000
   9991 H          66.9458   56.8524   18.8375 H       968      M_A    0.0000
   9992 H          67.1774   58.4465   18.5136 H       968      M_A    0.0000
   9993 C          67.6797   54.9546   17.4857 C.3     969      M_A    0.0000
   9994 C          66.5791   55.3444   18.3678 C.3     969      M_A    0.0000
   9995 C          66.6209   56.7903   18.6355 C.2     969      M_A    0.0000
   9996 N          65.6380   57.2659   19.3657 N.3     969      M_A    0.0000
   9997 O          67.4626   57.5173   18.2703 O.2     969      M_A    0.0000
   9998 H          67.3821   54.9087   16.4850 H       969      M_A    0.0000
   9999 H          68.0110   53.9922   17.7303 H       969      M_A    0.0000
  10000 H          66.6611   54.8617   19.2931 H       969      M_A    0.0000
  10001 H          64.7862   56.8042   19.3397 H       969      M_A    0.0000
  10002 H          65.5996   58.2282   19.4416 H       969      M_A    0.0000
  10003 C          65.2195   54.9701   17.7854 C.3     970      M_A    0.0000
  10004 C          64.0998   55.5882   18.4965 C.3     970      M_A    0.0000
  10005 C          63.9083   56.9763   18.0485 C.2     970      M_A    0.0000
  10006 N          62.8851   57.6111   18.5735 N.3     970      M_A    0.0000
  10007 O          64.6036   57.5412   17.2951 O.2     970      M_A    0.0000
  10008 H          65.2084   55.1967   16.7652 H       970      M_A    0.0000
  10009 H          65.1515   53.9274   17.8477 H       970      M_A    0.0000
  10010 H          64.2929   55.6248   19.5248 H       970      M_A    0.0000
  10011 H          62.1222   57.0870   18.8608 H       970      M_A    0.0000
  10012 H          62.6890   58.4771   18.1930 H       970      M_A    0.0000
  10013 C          62.8030   54.8061   18.3110 C.3     971      M_A    0.0000
  10014 C          61.7783   55.5566   17.5841 C.3     971      M_A    0.0000
  10015 C          60.8696   54.6386   16.8803 C.2     971      M_A    0.0000
  10016 N          59.8666   55.2010   16.2453 N.3     971      M_A    0.0000
  10017 O          60.9942   53.4756   16.8317 O.2     971      M_A    0.0000
  10018 H          63.0160   53.8908   17.8540 H       971      M_A    0.0000
  10019 H          62.4616   54.5734   19.2728 H       971      M_A    0.0000
  10020 H          62.2174   56.1670   16.8558 H       971      M_A    0.0000
  10021 H          59.5342   56.0484   16.5782 H       971      M_A    0.0000
  10022 H          59.2059   54.5953   15.8851 H       971      M_A    0.0000
  10023 C          60.9737   56.4669   18.5070 C.3     972      M_A    0.0000
  10024 C          60.3114   57.5628   17.7986 C.3     972      M_A    0.0000
  10025 C          58.8598   57.5257   18.0342 C.2     972      M_A    0.0000
  10026 N          58.1678   58.5054   17.4987 N.3     972      M_A    0.0000
  10027 O          58.2969   56.6901   18.6303 O.2     972      M_A    0.0000
  10028 H          60.2969   55.8892   19.0549 H       972      M_A    0.0000
  10029 H          61.6532   56.8505   19.2048 H       972      M_A    0.0000
  10030 H          60.4539   57.4717   16.7655 H       972      M_A    0.0000
  10031 H          58.6128   59.3552   17.3603 H       972      M_A    0.0000
  10032 H          57.2363   58.5476   17.7512 H       972      M_A    0.0000
  10033 C          60.8627   58.9249   18.2092 C.3     973      M_A    0.0000
  10034 C          61.6545   59.5650   17.1580 C.3     973      M_A    0.0000
  10035 C          60.8087   59.8825   15.9971 C.2     973      M_A    0.0000
  10036 N          61.4016   60.5219   15.0147 N.3     973      M_A    0.0000
  10037 O          59.6809   59.5886   15.8868 O.2     973      M_A    0.0000
  10038 H          60.0750   59.5319   18.5305 H       973      M_A    0.0000
  10039 H          61.4578   58.7572   19.0538 H       973      M_A    0.0000
  10040 H          62.4055   58.9192   16.8191 H       973      M_A    0.0000
  10041 H          62.1578   61.0884   15.2304 H       973      M_A    0.0000
  10042 H          60.8221   60.8345   14.3078 H       973      M_A    0.0000
  10043 C          62.3430   60.8334   17.6529 C.3     974      M_A    0.0000
  10044 C          63.8003   60.7814   17.5304 C.2     974      M_A    0.0000
  10045 C          64.2280   61.3285   16.2335 C.2     974      M_A    0.0000
  10046 N          65.5256   61.3934   16.0396 N.3     974      M_A    0.0000
  10047 O          63.5064   61.6764   15.3800 O.2     974      M_A    0.0000
  10048 H          61.9376   61.6598   17.1581 H       974      M_A    0.0000
  10049 H          62.0717   60.9403   18.6583 H       974      M_A    0.0000
  10050 H          64.1371   59.7909   17.5681 H       974      M_A    0.0000
  10051 H          66.0983   61.4875   16.8158 H       974      M_A    0.0000
  10052 H          65.8075   61.8601   15.2422 H       974      M_A    0.0000
  10053 C          89.5256   39.0789    9.8247 C.2     975      M_A    0.0000
  10054 C          88.1041   38.1428    9.4300 C.3     975      M_A    0.0000
  10055 C          88.3142   36.4692    9.9201 C.2     975      M_A    0.0000
  10056 N          87.0777   35.5309    9.6953 N.3     975      M_A    0.0000
  10057 O          89.4882   35.9310   10.4545 O.2     975      M_A    0.0000
  10058 H          89.5158   39.4663   11.0108 H       975      M_A    0.0000
  10059 H          89.5625   40.1151    9.1269 H       975      M_A    0.0000
  10060 H          87.9113   38.1375    8.1951 H       975      M_A    0.0000
  10061 H          86.0233   36.0075    9.7092 H       975      M_A    0.0000
  10062 H          87.1643   34.4723   10.1451 H       975      M_A    0.0000
  10063 C          86.6019   38.8231   10.2041 C.3     976      M_A    0.0000
  10064 C          86.2313   40.4459    9.6729 C.3     976      M_A    0.0000
  10065 C          86.2793   40.5453    7.9199 C.2     976      M_A    0.0000
  10066 N          85.8868   41.9329    7.3031 N.3     976      M_A    0.0000
  10067 O          86.6617   39.5058    7.0675 O.2     976      M_A    0.0000
  10068 H          85.6502   38.0394   10.0117 H       976      M_A    0.0000
  10069 H          86.8090   38.8135   11.4365 H       976      M_A    0.0000
  10070 H          87.0812   41.2539   10.1053 H       976      M_A    0.0000
  10071 H          85.1591   42.6070    7.8990 H       976      M_A    0.0000
  10072 H          85.7804   41.9582    6.1549 H       976      M_A    0.0000
  10073 C          84.6052   41.0061   10.2734 C.3     977      M_A    0.0000
  10074 C          83.4661   41.3123    8.9844 C.3     977      M_A    0.0000
  10075 C          83.0488   39.8163    8.1641 C.2     977      M_A    0.0000
  10076 N          81.9702   39.9357    7.0318 N.3     977      M_A    0.0000
  10077 O          83.6214   38.5692    8.4292 O.2     977      M_A    0.0000
  10078 H          84.1659   40.1802   11.0991 H       977      M_A    0.0000
  10079 H          84.8138   42.0563   10.9181 H       977      M_A    0.0000
  10080 H          83.9685   42.0688    8.1256 H       977      M_A    0.0000
  10081 H          81.1900   40.7866    7.1110 H       977      M_A    0.0000
  10082 H          81.5933   38.9381    6.5923 H       977      M_A    0.0000
  10083 C          81.9506   42.1213    9.5904 C.3     978      M_A    0.0000
  10084 C          80.5299   41.6974    8.6659 C.3     978      M_A    0.0000
  10085 C          79.8846   40.1544    9.2027 C.2     978      M_A    0.0000
  10086 N          78.5578   39.6896    8.5076 N.3     978      M_A    0.0000
  10087 O          80.4770   39.3265   10.1603 O.2     978      M_A    0.0000
  10088 H          81.8098   41.8717   10.8049 H       978      M_A    0.0000
  10089 H          82.1577   43.3516    9.5160 H       978      M_A    0.0000
  10090 H          80.8160   41.5696    7.4559 H       978      M_A    0.0000
  10091 H          77.8426   40.5033    8.1008 H       978      M_A    0.0000
  10092 H          78.0593   38.7516    8.9571 H       978      M_A    0.0000
  10093 C          79.2358   42.9745    8.7787 C.3     979      M_A    0.0000
  10094 C          78.4190   43.2594    7.2606 C.3     979      M_A    0.0000
  10095 C          78.1849   41.7490    6.3952 C.2     979      M_A    0.0000
  10096 N          77.3901   41.8500    5.0469 N.3     979      M_A    0.0000
  10097 O          78.6728   40.5052    6.8057 O.2     979      M_A    0.0000
  10098 H          78.4382   42.6712    9.6891 H       979      M_A    0.0000
  10099 H          79.8077   44.0187    9.1590 H       979      M_A    0.0000
  10100 H          79.1081   43.9968    6.5233 H       979      M_A    0.0000
  10101 H          76.6191   42.7053    4.9325 H       979      M_A    0.0000
  10102 H          77.1137   40.8453    4.5523 H       979      M_A    0.0000
  10103 C          76.8126   44.0861    7.4944 C.3     980      M_A    0.0000
  10104 C          76.8248   45.7617    6.9992 C.3     980      M_A    0.0000
  10105 C          75.2123   46.2761    6.5299 C.2     980      M_A    0.0000
  10106 N          75.0644   47.7872    6.1368 N.3     980      M_A    0.0000
  10107 O          74.0930   45.4421    6.4589 O.2     980      M_A    0.0000
  10108 H          75.9256   43.4321    6.9092 H       980      M_A    0.0000
  10109 H          76.5509   44.0025    8.7136 H       980      M_A    0.0000
  10110 H          77.5605   45.9187    6.0010 H       980      M_A    0.0000
  10111 H          75.7964   48.5472    6.6117 H       980      M_A    0.0000
  10112 H          73.9851   48.1569    5.9672 H       980      M_A    0.0000
  10113 C          77.4592   46.8563    8.3098 C.3     981      M_A    0.0000
  10114 C          78.6008   48.0410    7.7215 C.3     981      M_A    0.0000
  10115 C          77.7666   49.5038    7.2218 C.2     981      M_A    0.0000
  10116 N          78.6828   50.6838    6.7444 N.3     981      M_A    0.0000
  10117 O          76.3787   49.6669    7.1962 O.2     981      M_A    0.0000
  10118 H          76.4978   47.3873    8.9020 H       981      M_A    0.0000
  10119 H          78.0097   46.1126    9.1500 H       981      M_A    0.0000
  10120 H          79.2049   47.6070    6.7170 H       981      M_A    0.0000
  10121 H          79.7540   50.7503    7.1769 H       981      M_A    0.0000
  10122 H          78.1473   51.6873    6.5528 H       981      M_A    0.0000
  10123 C          79.8625   48.4520    8.9695 C.3     982      M_A    0.0000
  10124 C          81.4611   47.8935    8.5387 C.3     982      M_A    0.0000
  10125 C          81.9603   48.5835    7.0025 C.2     982      M_A    0.0000
  10126 N          83.4135   48.2262    6.5330 N.3     982      M_A    0.0000
  10127 O          81.1580   49.3827    6.1833 O.2     982      M_A    0.0000
  10128 H          79.8393   49.6804    9.1874 H       982      M_A    0.0000
  10129 H          79.4920   47.9092   10.0326 H       982      M_A    0.0000
  10130 H          81.4688   46.6516    8.3980 H       982      M_A    0.0000
  10131 H          84.2050   47.9914    7.3437 H       982      M_A    0.0000
  10132 H          83.7911   48.7904    5.6005 H       982      M_A    0.0000
  10133 C          82.6927   48.2954    9.8193 C.3     983      M_A    0.0000
  10134 C          83.1924   46.9045   10.7512 C.3     983      M_A    0.0000
  10135 C          84.9293   46.9301   11.0112 C.2     983      M_A    0.0000
  10136 N          85.5037   45.7759   11.9043 N.3     983      M_A    0.0000
  10137 O          85.8086   47.8692   10.4649 O.2     983      M_A    0.0000
  10138 H          83.6619   48.8755    9.2888 H       983      M_A    0.0000
  10139 H          82.1560   49.1408   10.5671 H       983      M_A    0.0000
  10140 H          82.9334   45.8480   10.1356 H       983      M_A    0.0000
  10141 H          84.8083   45.3077   12.7020 H       983      M_A    0.0000
  10142 H          86.6166   45.8719   12.1917 H       983      M_A    0.0000
  10143 C          82.3346   46.8138   12.3557 C.3     984      M_A    0.0000
  10144 C          81.1584   45.5241   12.4329 C.2     984      M_A    0.0000
  10145 C          81.8960   44.0553   13.0522 C.2     984      M_A    0.0000
  10146 N          80.9298   42.8355   13.2482 N.3     984      M_A    0.0000
  10147 O          83.2540   43.9011   13.3448 O.2     984      M_A    0.0000
  10148 H          83.1806   46.7304   13.2691 H       984      M_A    0.0000
  10149 H          81.7698   47.9176   12.5127 H       984      M_A    0.0000
  10150 H          80.7235   45.2582   11.2917 H       984      M_A    0.0000
  10151 H          79.8137   43.0542   13.4616 H       984      M_A    0.0000
  10152 H          81.3815   41.9204   13.7858 H       984      M_A    0.0000
  10153 C          17.8885   13.2755    6.4940 C.2     985      M_A    0.0000
  10154 C          17.0109   14.2034    5.6417 C.3     985      M_A    0.0000
  10155 C          15.6820   14.2380    6.0204 C.2     985      M_A    0.0000
  10156 N          14.9500   14.9695    5.3479 N.3     985      M_A    0.0000
  10157 O          15.2448   13.6546    6.8440 O.2     985      M_A    0.0000
  10158 H          18.1149   13.7106    7.4747 H       985      M_A    0.0000
  10159 H          18.8586   13.1203    6.0031 H       985      M_A    0.0000
  10160 H          17.0384   13.8341    4.7305 H       985      M_A    0.0000
  10161 H          15.3248   15.6930    4.9412 H       985      M_A    0.0000
  10162 H          14.1059   15.0792    5.6630 H       985      M_A    0.0000
  10163 C          17.5265   15.5391    5.5713 C.3     986      M_A    0.0000
  10164 C          18.8898   15.6012    5.7395 C.3     986      M_A    0.0000
  10165 C          19.5340   15.4702    4.5236 C.2     986      M_A    0.0000
  10166 N          20.7635   15.5742    4.5524 N.3     986      M_A    0.0000
  10167 O          19.0367   15.2626    3.5648 O.2     986      M_A    0.0000
  10168 H          17.2409   15.9514    4.7271 H       986      M_A    0.0000
  10169 H          17.0762   16.0456    6.2840 H       986      M_A    0.0000
  10170 H          19.2014   14.8619    6.3086 H       986      M_A    0.0000
  10171 H          21.1349   16.0831    5.2100 H       986      M_A    0.0000
  10172 H          21.1756   15.6003    3.7442 H       986      M_A    0.0000
  10173 C          19.2981   16.8212    6.3719 C.3     987      M_A    0.0000
  10174 C          20.6021   16.7935    6.8072 C.3     987      M_A    0.0000
  10175 C          21.4455   16.4022    5.7844 C.2     987      M_A    0.0000
  10176 N          22.6506   16.4036    6.0510 N.3     987      M_A    0.0000
  10177 O          21.1186   16.0777    4.7857 O.2     987      M_A    0.0000
  10178 H          19.1293   17.5727    5.7630 H       987      M_A    0.0000
  10179 H          18.6914   16.9517    7.1350 H       987      M_A    0.0000
  10180 H          20.7100   16.1381    7.5326 H       987      M_A    0.0000
  10181 H          22.9478   16.9832    6.6873 H       987      M_A    0.0000
  10182 H          23.2091   16.2559    5.3508 H       987      M_A    0.0000
  10183 C          21.0242   18.0638    7.3203 C.3     988      M_A    0.0000
  10184 C          21.4970   17.9952    8.6096 C.3     988      M_A    0.0000
  10185 C          22.5053   18.9202    8.8052 C.2     988      M_A    0.0000
  10186 N          22.9598   18.9862    9.9508 N.3     988      M_A    0.0000
  10187 O          22.9309   19.5653    8.0225 O.2     988      M_A    0.0000
  10188 H          21.6829   18.4569    6.7073 H       988      M_A    0.0000
  10189 H          20.2365   18.6514    7.2815 H       988      M_A    0.0000
  10190 H          21.8841   17.1089    8.7887 H       988      M_A    0.0000
  10191 H          22.4127   18.7585   10.6423 H       988      M_A    0.0000
  10192 H          23.5400   19.6667   10.1058 H       988      M_A    0.0000
  10193 C          20.4578   18.2044    9.5747 C.3     989      M_A    0.0000
  10194 C          20.8263   17.8483   10.8506 C.3     989      M_A    0.0000
  10195 C          20.6200   18.8988   11.7249 C.2     989      M_A    0.0000
  10196 N          20.8607   18.6651   12.9127 N.3     989      M_A    0.0000
  10197 O          20.2868   19.9060   11.4344 O.2     989      M_A    0.0000
  10198 H          20.1548   19.1371    9.5260 H       989      M_A    0.0000
  10199 H          19.6949   17.6580    9.2800 H       989      M_A    0.0000
  10200 H          21.7852   17.6322   10.8854 H       989      M_A    0.0000
  10201 H          20.7755   17.8073   13.2062 H       989      M_A    0.0000
  10202 H          20.6200   19.3152   13.4987 H       989      M_A    0.0000
  10203 C          20.1164   16.6914   11.3117 C.3     990      M_A    0.0000
  10204 C          20.2030   16.5115   12.6721 C.3     990      M_A    0.0000
  10205 C          19.0029   16.0463   13.1762 C.2     990      M_A    0.0000
  10206 N          18.9896   15.7909   14.3836 N.3     990      M_A    0.0000
  10207 O          18.0807   15.9154   12.5912 O.2     990      M_A    0.0000
  10208 H          19.1847   16.7410   11.0057 H       990      M_A    0.0000
  10209 H          20.5123   15.9217   10.8447 H       990      M_A    0.0000
  10210 H          20.3895   17.3660   13.1222 H       990      M_A    0.0000
  10211 H          19.7729   15.5454   14.7780 H       990      M_A    0.0000
  10212 H          18.2402   15.3817   14.6915 H       990      M_A    0.0000
  10213 C          21.2575   15.6082   13.0286 C.3     991      M_A    0.0000
  10214 C          21.0614   15.0034   14.2478 C.3     991      M_A    0.0000
  10215 C          22.2698   14.6166   14.7961 C.2     991      M_A    0.0000
  10216 N          22.2135   14.1171   15.9234 N.3     991      M_A    0.0000
  10217 O          23.2461   14.7024   14.2968 O.2     991      M_A    0.0000
  10218 H          21.3783   14.9523   12.3078 H       991      M_A    0.0000
  10219 H          22.0829   16.1427   13.0470 H       991      M_A    0.0000
  10220 H          20.5204   14.1884   14.1458 H       991      M_A    0.0000
  10221 H          21.5270   14.3651   16.4678 H       991      M_A    0.0000
  10222 H          23.0120   13.9669   16.3280 H       991      M_A    0.0000
  10223 C          20.3674   15.8581   15.1659 C.3     992      M_A    0.0000
  10224 C          20.5385   15.4909   16.4799 C.3     992      M_A    0.0000
  10225 C          21.8546   15.1417   16.7175 C.2     992      M_A    0.0000
  10226 N          22.1322   14.8539   17.8851 N.3     992      M_A    0.0000
  10227 O          22.6407   15.0837   15.9504 O.2     992      M_A    0.0000
  10228 H          20.6356   16.7891   15.0062 H       992      M_A    0.0000
  10229 H          19.4156   15.8068   14.9234 H       992      M_A    0.0000
  10230 H          19.9911   14.7017   16.6919 H       992      M_A    0.0000
  10231 H          21.6364   15.2319   18.5488 H       992      M_A    0.0000
  10232 H          23.0144   14.7342   18.0622 H       992      M_A    0.0000
  10233 C          20.1456   16.5317   17.3841 C.3     993      M_A    0.0000
  10234 C          20.5520   16.3048   18.6779 C.3     993      M_A    0.0000
  10235 C          19.7419   16.9867   19.5663 C.2     993      M_A    0.0000
  10236 N          19.9814   16.8023   20.7629 N.3     993      M_A    0.0000
  10237 O          18.9365   17.6798   19.2822 O.2     993      M_A    0.0000
  10238 H          20.4679   17.3943   17.0431 H       993      M_A    0.0000
  10239 H          19.1640   16.5759   17.3426 H       993      M_A    0.0000
  10240 H          21.4680   16.6359   18.8151 H       993      M_A    0.0000
  10241 H          20.3558   16.0091   21.0074 H       993      M_A    0.0000
  10242 H          19.3824   17.1591   21.3441 H       993      M_A    0.0000
  10243 C          20.5552   14.9086   19.0030 C.3     994      M_A    0.0000
  10244 C          20.5801   14.6696   20.3568 C.3     994      M_A    0.0000
  10245 C          19.7974   13.5740   20.6692 C.2     994      M_A    0.0000
  10246 N          19.7987   13.2328   21.8554 N.3     994      M_A    0.0000
  10247 O          19.1745   13.0181   19.9531 O.2     994      M_A    0.0000
  10248 H          19.7906   14.4737   18.5665 H       994      M_A    0.0000
  10249 H          21.3580   14.5296   18.5796 H       994      M_A    0.0000
  10250 H          20.2085   15.4355   20.8494 H       994      M_A    0.0000
  10251 H          20.5377   13.4193   22.3538 H       994      M_A    0.0000
  10252 H          19.3769   12.4508   22.0408 H       994      M_A    0.0000
  10253 C          21.9133   14.4630   20.8415 C.3     995      M_A    0.0000
  10254 C          22.0757   14.8422   22.1531 C.3     995      M_A    0.0000
  10255 C          21.5985   13.8620   23.0029 C.2     995      M_A    0.0000
  10256 N          21.7526   14.0742   24.2089 N.3     995      M_A    0.0000
  10257 O          21.0853   12.9435   22.6823 O.2     995      M_A    0.0000
  10258 H          22.1686   13.5263   20.6949 H       995      M_A    0.0000
  10259 H          22.5022   14.9963   20.2617 H       995      M_A    0.0000
  10260 H          21.5616   15.6591   22.3425 H       995      M_A    0.0000
  10261 H          22.4538   14.5953   24.4659 H       995      M_A    0.0000
  10262 H          21.5423   13.3845   24.7603 H       995      M_A    0.0000
  10263 C          23.4461   15.1246   22.4650 C.3     996      M_A    0.0000
  10264 C          23.6167   15.6445   23.7264 C.3     996      M_A    0.0000
  10265 C          24.9449   15.9590   23.9447 C.2     996      M_A    0.0000
  10266 N          25.2001   16.4925   25.0280 N.3     996      M_A    0.0000
  10267 O          25.7667   15.7491   23.2446 O.2     996      M_A    0.0000
  10268 H          23.9827   14.3142   22.3254 H       996      M_A    0.0000
  10269 H          23.7540   15.7706   21.7903 H       996      M_A    0.0000
  10270 H          23.3639   14.9834   24.4094 H       996      M_A    0.0000
  10271 H          24.5460   16.9837   25.4281 H       996      M_A    0.0000
  10272 H          26.0487   16.7996   25.1256 H       996      M_A    0.0000
  10273 C          22.8049   16.8060   23.9430 C.3     997      M_A    0.0000
  10274 C          23.0741   17.8252   23.0602 C.3     997      M_A    0.0000
  10275 C          22.2647   18.9156   23.3183 C.2     997      M_A    0.0000
  10276 N          22.4676   19.9132   22.6206 N.3     997      M_A    0.0000
  10277 O          21.4603   18.9414   24.0681 O.2     997      M_A    0.0000
  10278 H          21.8582   16.5459   23.9270 H       997      M_A    0.0000
  10279 H          22.9873   17.1011   24.8634 H       997      M_A    0.0000
  10280 H          22.8852   17.5417   22.1376 H       997      M_A    0.0000
  10281 H          23.3055   20.0392   22.2870 H       997      M_A    0.0000
  10282 H          22.0158   20.6621   22.8631 H       997      M_A    0.0000
  10283 C          24.4499   18.2255   23.1051 C.3     998      M_A    0.0000
  10284 C          24.6195   19.5867   23.0116 C.3     998      M_A    0.0000
  10285 C          25.6606   20.0014   23.8209 C.2     998      M_A    0.0000
  10286 N          25.9396   21.2024   23.7650 N.3     998      M_A    0.0000
  10287 O          26.2237   19.3525   24.5076 O.2     998      M_A    0.0000
  10288 H          24.8671   17.8574   23.9142 H       998      M_A    0.0000
  10289 H          24.8910   17.7787   22.3480 H       998      M_A    0.0000
  10290 H          23.8129   20.0571   23.3208 H       998      M_A    0.0000
  10291 H          25.7616   21.6478   22.9910 H       998      M_A    0.0000
  10292 H          26.6909   21.4533   24.2084 H       998      M_A    0.0000
  10293 C          24.8615   20.0066   21.6625 C.3     999      M_A    0.0000
  10294 C          23.8631   20.8065   21.1587 C.3     999      M_A    0.0000
  10295 C          24.3905   21.9832   20.6607 C.2     999      M_A    0.0000
  10296 N          23.5845   22.7499   20.1262 N.3     999      M_A    0.0000
  10297 O          25.4473   22.2802   20.7293 O.2     999      M_A    0.0000
  10298 H          25.7411   20.4403   21.6121 H       999      M_A    0.0000
  10299 H          24.9360   19.1844   21.1279 H       999      M_A    0.0000
  10300 H          23.2292   21.0557   21.8683 H       999      M_A    0.0000
  10301 H          22.8388   22.3907   19.7466 H       999      M_A    0.0000
  10302 H          23.9448   23.4669   19.7018 H       999      M_A    0.0000
  10303 C          23.1100   20.1447   20.1341 C.3    1000      M_A    0.0000
  10304 C          21.9221   20.7740   19.8452 C.3    1000      M_A    0.0000
  10305 C          22.1481   21.9156   19.0993 C.2    1000      M_A    0.0000
  10306 N          21.1403   22.5257   18.7313 N.3    1000      M_A    0.0000
  10307 O          23.1398   22.3147   18.8406 O.2    1000      M_A    0.0000
  10308 H          23.6734   20.0383   19.3369 H      1000      M_A    0.0000
  10309 H          22.9370   19.2346   20.4645 H      1000      M_A    0.0000
  10310 H          21.4719   21.0580   20.6723 H      1000      M_A    0.0000
  10311 H          20.3719   22.0516   18.6133 H      1000      M_A    0.0000
  10312 H          21.2834   23.2084   18.1505 H      1000      M_A    0.0000
  10313 C          21.0144   19.9131   19.1452 C.3    1001      M_A    0.0000
  10314 C          19.8967   20.5678   18.6839 C.3    1001      M_A    0.0000
  10315 C          19.4781   20.0240   17.4840 C.2    1001      M_A    0.0000
  10316 N          18.4417   20.4987   17.0109 N.3    1001      M_A    0.0000
  10317 O          20.0068   19.2346   16.9299 O.2    1001      M_A    0.0000
  10318 H          21.4964   19.4543   18.4231 H      1001      M_A    0.0000
  10319 H          20.7540   19.2113   19.7831 H      1001      M_A    0.0000
  10320 H          20.0976   21.5154   18.5131 H      1001      M_A    0.0000
  10321 H          17.8308   20.8520   17.5865 H      1001      M_A    0.0000
  10322 H          18.1068   20.0686   16.2852 H      1001      M_A    0.0000
  10323 C          18.8218   20.5287   19.6315 C.3    1002      M_A    0.0000
  10324 C          18.4634   19.2503   19.9891 C.3    1002      M_A    0.0000
  10325 C          19.0845   18.3265   19.1697 C.2    1002      M_A    0.0000
  10326 N          18.8799   17.1407   19.4443 N.3    1002      M_A    0.0000
  10327 O          19.7119   18.5741   18.3009 O.2    1002      M_A    0.0000
  10328 H          19.0588   21.0761   20.4114 H      1002      M_A    0.0000
  10329 H          18.0619   20.9840   19.2041 H      1002      M_A    0.0000
  10330 H          17.4943   19.1207   19.8820 H      1002      M_A    0.0000
  10331 H          18.6953   16.9273   20.3101 H      1002      M_A    0.0000
  10332 H          19.3739   16.5377   18.9793 H      1002      M_A    0.0000
  10333 C          18.7779   18.9674   21.3588 C.3    1003      M_A    0.0000
  10334 C          17.8006   18.2419   21.9984 C.3    1003      M_A    0.0000
  10335 C          16.5709   18.4588   21.4058 C.2    1003      M_A    0.0000
  10336 N          15.6299   17.8052   21.8649 N.3    1003      M_A    0.0000
  10337 O          16.3797   19.1724   20.5909 O.2    1003      M_A    0.0000
  10338 H          19.6536   18.5254   21.4044 H      1003      M_A    0.0000
  10339 H          18.8932   19.8389   21.8000 H      1003      M_A    0.0000
  10340 H          17.7191   18.5250   22.9369 H      1003      M_A    0.0000
  10341 H          15.8141   16.9986   22.2454 H      1003      M_A    0.0000
  10342 H          14.8491   17.8629   21.4057 H      1003      M_A    0.0000
  10343 C          18.0912   16.8382   22.0051 C.3    1004      M_A    0.0000
  10344 C          16.9634   16.0536   22.0598 C.3    1004      M_A    0.0000
  10345 C          16.2277   16.1818   20.8967 C.2    1004      M_A    0.0000
  10346 N          15.2228   15.4699   20.8147 N.3    1004      M_A    0.0000
  10347 O          16.4618   16.8739   20.0746 O.2    1004      M_A    0.0000
  10348 H          18.6532   16.6210   21.2297 H      1004      M_A    0.0000
  10349 H          18.6518   16.6772   22.7971 H      1004      M_A    0.0000
  10350 H          16.3803   16.3383   22.7991 H      1004      M_A    0.0000
  10351 H          15.2187   14.6809   21.2693 H      1004      M_A    0.0000
  10352 H          14.8040   15.4708   20.0094 H      1004      M_A    0.0000
  10353 C          17.2796   14.6728   22.2800 C.3    1005      M_A    0.0000
  10354 C          17.4312   14.3591   23.6101 C.3    1005      M_A    0.0000
  10355 C          16.2514   13.8571   24.1265 C.2    1005      M_A    0.0000
  10356 N          16.2946   13.4841   25.3022 N.3    1005      M_A    0.0000
  10357 O          15.2996   13.7925   23.5791 O.2    1005      M_A    0.0000
  10358 H          16.6005   14.1127   21.8449 H      1005      M_A    0.0000
  10359 H          18.1189   14.5025   21.7964 H      1005      M_A    0.0000
  10360 H          17.6515   15.1634   24.1316 H      1005      M_A    0.0000
  10361 H          17.0930   13.1941   25.6304 H      1005      M_A    0.0000
  10362 H          15.5558   13.0533   25.6062 H      1005      M_A    0.0000
  10363 C          18.4896   13.4158   23.8224 C.3    1006      M_A    0.0000
  10364 C          18.5336   12.9343   25.1095 C.3    1006      M_A    0.0000
  10365 C          18.5020   11.5524   25.1106 C.2    1006      M_A    0.0000
  10366 N          18.5998   11.0132   26.2165 N.3    1006      M_A    0.0000
  10367 O          18.3761   10.9230   24.2175 O.2    1006      M_A    0.0000
  10368 H          18.4156   12.6933   23.1616 H      1006      M_A    0.0000
  10369 H          19.3257   13.8888   23.6113 H      1006      M_A    0.0000
  10370 H          17.7488   13.2381   25.6187 H      1006      M_A    0.0000
  10371 H          19.0513   11.4571   26.8710 H      1006      M_A    0.0000
  10372 H          18.6917   10.1102   26.2077 H      1006      M_A    0.0000
  10373 C          19.6958   13.3901   25.8142 C.3    1007      M_A    0.0000
  10374 C          19.7351   12.9665   27.1217 C.3    1007      M_A    0.0000
  10375 C          19.3669   11.6372   27.2111 C.2    1007      M_A    0.0000
  10376 N          19.4279   11.1369   28.3378 N.3    1007      M_A    0.0000
  10377 O          19.0120   11.0225   26.3710 O.2    1007      M_A    0.0000
  10378 H          20.4998   13.1242   25.3171 H      1007      M_A    0.0000
  10379 H          19.6706   14.3727   25.7794 H      1007      M_A    0.0000
  10380 H          19.0968   13.4768   27.6692 H      1007      M_A    0.0000
  10381 H          20.0305   11.4813   28.9272 H      1007      M_A    0.0000
  10382 H          19.2951   10.2399   28.3782 H      1007      M_A    0.0000
  10383 C          21.0313   13.1477   27.7065 C.3    1008      M_A    0.0000
  10384 C          21.1991   14.3889   28.2738 C.3    1008      M_A    0.0000
  10385 C          20.3778   14.5320   29.3764 C.2    1008      M_A    0.0000
  10386 N          20.4945   15.5907   30.0000 N.3    1008      M_A    0.0000
  10387 O          19.6334   13.7939   29.7093 O.2    1008      M_A    0.0000
  10388 H          21.2001   12.4239   28.3483 H      1008      M_A    0.0000
  10389 H          21.6812   13.0194   26.9794 H      1008      M_A    0.0000
  10390 H          20.9485   15.0959   27.6376 H      1008      M_A    0.0000
  10391 H          21.2997   16.0154   29.9760 H      1008      M_A    0.0000
  10392 H          20.0393   15.6384   30.7838 H      1008      M_A    0.0000
  10393 C          22.5608   14.6265   28.6535 C.3    1009      M_A    0.0000
  10394 C          23.0950   15.7520   28.0717 C.3    1009      M_A    0.0000
  10395 C          22.0986   16.5205   27.4998 C.2    1009      M_A    0.0000
  10396 N          22.4629   17.5895   27.0019 N.3    1009      M_A    0.0000
  10397 O          21.0374   16.2373   27.4422 O.2    1009      M_A    0.0000
  10398 H          22.6229   14.6539   29.6330 H      1009      M_A    0.0000
  10399 H          23.0669   13.8308   28.3740 H      1009      M_A    0.0000
  10400 H          23.7155   15.5058   27.3493 H      1009      M_A    0.0000
  10401 H          23.2048   17.9909   27.3449 H      1009      M_A    0.0000
  10402 H          21.7980   18.1432   26.7277 H      1009      M_A    0.0000
  10403 C          23.8342   16.5431   29.0112 C.3    1010      M_A    0.0000
  10404 C          25.1892   16.5325   28.7779 C.2    1010      M_A    0.0000
  10405 C          25.5450   17.5764   27.9446 C.2    1010      M_A    0.0000
  10406 N          26.7525   17.6971   27.7195 N.3    1010      M_A    0.0000
  10407 O          24.8392   18.2709   27.4659 O.2    1010      M_A    0.0000
  10408 H          23.4700   17.4550   29.0226 H      1010      M_A    0.0000
  10409 H          23.6427   16.1658   29.8990 H      1010      M_A    0.0000
  10410 H          25.4547   15.7015   28.3236 H      1010      M_A    0.0000
  10411 H          27.3377   17.4016   28.3516 H      1010      M_A    0.0000
  10412 H          26.9959   18.4449   27.2662 H      1010      M_A    0.0000
  10413 C          52.3976   69.9092   17.0381 C.2    1011      M_A    0.0000
  10414 C          53.3536   69.3350   17.6462 C.3    1011      M_A    0.0000
  10415 C          53.4366   69.7571   18.8485 C.2    1011      M_A    0.0000
  10416 N          54.2311   69.2583   19.4965 N.3    1011      M_A    0.0000
  10417 O          52.8705   70.5017   19.2457 O.2    1011      M_A    0.0000
  10418 H          51.6414   69.9323   17.5388 H      1011      M_A    0.0000
  10419 H          52.1840   69.4454   16.2866 H      1011      M_A    0.0000
  10420 H          54.1465   69.5246   17.2449 H      1011      M_A    0.0000
  10421 H          54.4507   68.4669   19.3142 H      1011      M_A    0.0000
  10422 H          54.2169   69.4607   20.3102 H      1011      M_A    0.0000
  10423 C          53.2220   68.0171   17.6455 C.3    1012      M_A    0.0000
  10424 C          52.2131   67.6162   18.3049 C.3    1012      M_A    0.0000
  10425 C          51.2148   67.4360   17.5293 C.2    1012      M_A    0.0000
  10426 N          50.2734   67.0197   18.0198 N.3    1012      M_A    0.0000
  10427 O          51.2005   67.6536   16.5369 O.2    1012      M_A    0.0000
  10428 H          53.2084   67.7192   16.7887 H      1012      M_A    0.0000
  10429 H          53.9846   67.6856   18.0118 H      1012      M_A    0.0000
  10430 H          51.9629   68.2406   18.9159 H      1012      M_A    0.0000
  10431 H          50.3633   66.5404   18.7053 H      1012      M_A    0.0000
  10432 H          49.6548   66.8048   17.4960 H      1012      M_A    0.0000
  10433 C          52.4668   66.4996   18.9704 C.3    1013      M_A    0.0000
  10434 C          51.7620   65.5167   18.5824 C.3    1013      M_A    0.0000
  10435 C          52.3429   64.8992   17.6274 C.2    1013      M_A    0.0000
  10436 N          51.8143   63.9634   17.2467 N.3    1013      M_A    0.0000
  10437 O          53.2093   65.1924   17.1849 O.2    1013      M_A    0.0000
  10438 H          53.3549   66.3202   18.9244 H      1013      M_A    0.0000
  10439 H          52.2946   66.6800   19.8441 H      1013      M_A    0.0000
  10440 H          50.9619   65.8047   18.2620 H      1013      M_A    0.0000
  10441 H          51.3251   63.5392   17.7837 H      1013      M_A    0.0000
  10442 H          52.2441   63.5023   16.6936 H      1013      M_A    0.0000
  10443 C          51.5050   64.6705   19.5682 C.3    1014      M_A    0.0000
  10444 C          51.9473   63.5001   19.3489 C.3    1014      M_A    0.0000
  10445 C          53.1817   63.4219   19.6664 C.2    1014      M_A    0.0000
  10446 N          53.6579   62.3913   19.5597 N.3    1014      M_A    0.0000
  10447 O          53.7543   64.2012   19.9785 O.2    1014      M_A    0.0000
  10448 H          51.8218   65.0134   20.3460 H      1014      M_A    0.0000
  10449 H          50.6008   64.6497   19.6558 H      1014      M_A    0.0000
  10450 H          51.8891   63.2975   18.4650 H      1014      M_A    0.0000
  10451 H          53.1617   61.7164   19.6372 H      1014      M_A    0.0000
  10452 H          54.4355   62.3164   19.8645 H      1014      M_A    0.0000
  10453 C          51.2597   62.5784   20.0059 C.3    1015      M_A    0.0000
  10454 C          51.8194   61.4381   19.9976 C.3    1015      M_A    0.0000
  10455 C          51.2564   60.6575   20.8368 C.2    1015      M_A    0.0000
  10456 N          51.6514   59.5882   20.8632 N.3    1015      M_A    0.0000
  10457 O          50.5153   60.9269   21.4777 O.2    1015      M_A    0.0000
  10458 H          51.0979   62.8715   20.8490 H      1015      M_A    0.0000
  10459 H          50.4483   62.5294   19.5998 H      1015      M_A    0.0000
  10460 H          52.6905   61.5086   20.2465 H      1015      M_A    0.0000
  10461 H          51.9893   59.2739   20.1598 H      1015      M_A    0.0000
  10462 H          51.2157   59.0509   21.3371 H      1015      M_A    0.0000
  10463 C          51.8016   60.8853   18.7943 C.3    1016      M_A    0.0000
  10464 C          51.5510   59.6403   18.8210 C.3    1016      M_A    0.0000
  10465 C          51.0852   59.2536   17.6967 C.2    1016      M_A    0.0000
  10466 N          50.8817   58.1358   17.6011 N.3    1016      M_A    0.0000
  10467 O          50.8712   59.8640   16.9130 O.2    1016      M_A    0.0000
  10468 H          51.2189   61.3380   18.2665 H      1016      M_A    0.0000
  10469 H          52.6243   61.0291   18.4365 H      1016      M_A    0.0000
  10470 H          50.9178   59.4558   19.4462 H      1016      M_A    0.0000
  10471 H          51.3424   57.6085   18.0674 H      1016      M_A    0.0000
  10472 H          50.6752   57.8678   16.8338 H      1016      M_A    0.0000
  10473 C          52.6222   58.9249   19.1286 C.3    1017      M_A    0.0000
  10474 C          53.3086   58.5926   18.1127 C.3    1017      M_A    0.0000
  10475 C          54.5151   58.3447   18.4499 C.2    1017      M_A    0.0000
  10476 N          55.1998   57.9809   17.6139 N.3    1017      M_A    0.0000
  10477 O          54.8969   58.4678   19.3834 O.2    1017      M_A    0.0000
  10478 H          53.1170   59.3765   19.7402 H      1017      M_A    0.0000
  10479 H          52.3179   58.1822   19.5545 H      1017      M_A    0.0000
  10480 H          53.3375   59.2729   17.5110 H      1017      M_A    0.0000
  10481 H          54.8517   57.5679   16.9689 H      1017      M_A    0.0000
  10482 H          55.9600   57.7204   17.8535 H      1017      M_A    0.0000
  10483 C          52.7962   57.5425   17.4893 C.3    1018      M_A    0.0000
  10484 C          53.2747   57.3711   16.3251 C.3    1018      M_A    0.0000
  10485 C          54.3920   56.7559   16.3872 C.2    1018      M_A    0.0000
  10486 N          54.8760   56.5027   15.3863 N.3    1018      M_A    0.0000
  10487 O          54.8725   56.5044   17.2465 O.2    1018      M_A    0.0000
  10488 H          52.8982   56.8071   18.0104 H      1018      M_A    0.0000
  10489 H          51.9009   57.6891   17.4388 H      1018      M_A    0.0000
  10490 H          53.4361   58.1711   15.9256 H      1018      M_A    0.0000
  10491 H          54.3736   56.3929   14.7205 H      1018      M_A    0.0000
  10492 H          55.5539   56.0105   15.4240 H      1018      M_A    0.0000
  10493 C          52.4427   56.7042   15.5397 C.3    1019      M_A    0.0000
  10494 C          52.9340   55.6185   15.1000 C.3    1019      M_A    0.0000
  10495 C          54.2064   55.7002   15.0282 C.2    1019      M_A    0.0000
  10496 N          54.7472   54.7525   14.6974 N.3    1019      M_A    0.0000
  10497 O          54.7489   56.5375   15.2211 O.2    1019      M_A    0.0000
  10498 H          51.6606   56.5699   15.9793 H      1019      M_A    0.0000
  10499 H          52.2467   57.2594   14.8477 H      1019      M_A    0.0000
  10500 H          52.6329   55.4495   14.2595 H      1019      M_A    0.0000
  10501 H          54.3835   54.0118   14.8611 H      1019      M_A    0.0000
  10502 H          55.5839   54.7740   14.7496 H      1019      M_A    0.0000
  10503 C          52.5965   54.5809   15.8507 C.3    1020      M_A    0.0000
  10504 C          52.3162   53.5444   15.1720 C.2    1020      M_A    0.0000
  10505 C          53.3590   52.8280   14.9987 C.2    1020      M_A    0.0000
  10506 N          53.1988   51.8426   14.4477 N.3    1020      M_A    0.0000
  10507 O          54.2974   53.0829   15.2933 O.2    1020      M_A    0.0000
  10508 H          53.2542   54.4237   16.4554 H      1020      M_A    0.0000
  10509 H          51.8722   54.8417   16.3334 H      1020      M_A    0.0000
  10510 H          52.0150   53.7756   14.3465 H      1020      M_A    0.0000
  10511 H          52.4434   51.4766   14.5032 H      1020      M_A    0.0000
  10512 H          53.8596   51.3269   14.4249 H      1020      M_A    0.0000
  10513 C          23.4248   60.3556   17.8867 C.2    1021      M_A    0.0000
  10514 C          23.0892   61.8371   18.1103 C.3    1021      M_A    0.0000
  10515 C          24.3281   62.7182   17.8438 C.2    1021      M_A    0.0000
  10516 N          24.1308   64.0784   17.9454 N.3    1021      M_A    0.0000
  10517 O          25.4506   62.2951   17.5801 O.2    1021      M_A    0.0000
  10518 H          23.5405   59.8132   18.8326 H      1021      M_A    0.0000
  10519 H          24.3881   60.2628   17.3674 H      1021      M_A    0.0000
  10520 H          22.7922   62.0119   19.1533 H      1021      M_A    0.0000
  10521 H          23.2004   64.4421   17.7556 H      1021      M_A    0.0000
  10522 H          24.9074   64.6588   17.6497 H      1021      M_A    0.0000
  10523 C          21.8750   62.3231   17.1873 C.3    1022      M_A    0.0000
  10524 C          20.7033   62.9064   17.9900 C.3    1022      M_A    0.0000
  10525 C          20.6957   64.4469   17.8934 C.2    1022      M_A    0.0000
  10526 N          19.6452   65.0827   18.5192 N.3    1022      M_A    0.0000
  10527 O          21.5547   65.1224   17.3327 O.2    1022      M_A    0.0000
  10528 H          22.2518   63.0296   16.4382 H      1022      M_A    0.0000
  10529 H          21.5429   61.4392   16.6263 H      1022      M_A    0.0000
  10530 H          20.8020   62.6544   19.0545 H      1022      M_A    0.0000
  10531 H          18.7682   64.5768   18.6141 H      1022      M_A    0.0000
  10532 H          19.5712   66.0794   18.3511 H      1022      M_A    0.0000
  10533 C          19.2932   62.3297   17.4984 C.3    1023      M_A    0.0000
  10534 C          18.1745   62.5079   18.5349 C.3    1023      M_A    0.0000
  10535 C          16.8417   62.8536   17.8375 C.2    1023      M_A    0.0000
  10536 N          15.7443   62.9696   18.6632 N.3    1023      M_A    0.0000
  10537 O          16.7067   63.0509   16.6328 O.2    1023      M_A    0.0000
  10538 H          19.0352   62.7822   16.5335 H      1023      M_A    0.0000
  10539 H          19.4518   61.2618   17.2966 H      1023      M_A    0.0000
  10540 H          18.4055   63.3414   19.2119 H      1023      M_A    0.0000
  10541 H          15.7394   62.4374   19.5297 H      1023      M_A    0.0000
  10542 H          14.8509   63.0720   18.1957 H      1023      M_A    0.0000
  10543 C          17.9841   61.2030   19.4424 C.3    1024      M_A    0.0000
  10544 C          18.3113   61.4453   20.9229 C.3    1024      M_A    0.0000
  10545 C          17.3323   60.6666   21.8272 C.2    1024      M_A    0.0000
  10546 N          17.5702   60.7507   23.1821 N.3    1024      M_A    0.0000
  10547 O          16.3689   60.0174   21.4286 O.2    1024      M_A    0.0000
  10548 H          16.9686   60.8130   19.3046 H      1024      M_A    0.0000
  10549 H          18.6575   60.4404   19.0287 H      1024      M_A    0.0000
  10550 H          18.1992   62.5088   21.1734 H      1024      M_A    0.0000
  10551 H          18.5255   60.9121   23.4908 H      1024      M_A    0.0000
  10552 H          17.0077   60.1425   23.7660 H      1024      M_A    0.0000
  10553 C          19.8165   61.0335   21.2798 C.3    1025      M_A    0.0000
  10554 C          19.9545   60.4008   22.6719 C.3    1025      M_A    0.0000
  10555 C          18.8566   59.8531   23.2933 C.2    1025      M_A    0.0000
  10556 N          18.9982   59.5726   24.4804 N.3    1025      M_A    0.0000
  10557 O          17.8872   59.6782   22.8167 O.2    1025      M_A    0.0000
  10558 H          20.2083   60.3803   20.4910 H      1025      M_A    0.0000
  10559 H          20.4083   61.9571   21.2266 H      1025      M_A    0.0000
  10560 H          20.1395   61.2510   23.1198 H      1025      M_A    0.0000
  10561 H          19.8310   59.3693   24.7737 H      1025      M_A    0.0000
  10562 H          18.3189   59.1129   24.8582 H      1025      M_A    0.0000
  10563 C          21.0896   59.5622   22.8780 C.3    1026      M_A    0.0000
  10564 C          22.2457   60.2641   23.0834 C.3    1026      M_A    0.0000
  10565 C          22.2203   60.8854   24.3100 C.2    1026      M_A    0.0000
  10566 N          23.2396   61.4948   24.6224 N.3    1026      M_A    0.0000
  10567 O          21.3664   60.8898   24.9944 O.2    1026      M_A    0.0000
  10568 H          20.9027   58.9425   23.6097 H      1026      M_A    0.0000
  10569 H          21.1714   59.0103   22.0741 H      1026      M_A    0.0000
  10570 H          22.3444   60.9679   22.4107 H      1026      M_A    0.0000
  10571 H          24.0277   61.2128   24.2756 H      1026      M_A    0.0000
  10572 H          23.2655   61.8073   25.4692 H      1026      M_A    0.0000
  10573 C          23.4000   59.4314   22.9919 C.3    1027      M_A    0.0000
  10574 C          24.2996   59.8612   22.0552 C.3    1027      M_A    0.0000
  10575 C          24.3549   61.2352   22.0356 C.2    1027      M_A    0.0000
  10576 N          25.1798   61.7266   21.2702 N.3    1027      M_A    0.0000
  10577 O          23.7137   61.8982   22.6245 O.2    1027      M_A    0.0000
  10578 H          23.8055   59.3459   23.8767 H      1027      M_A    0.0000
  10579 H          23.0752   58.5382   22.7590 H      1027      M_A    0.0000
  10580 H          24.0264   59.5753   21.1601 H      1027      M_A    0.0000
  10581 H          25.9198   61.2423   21.0732 H      1027      M_A    0.0000
  10582 H          25.2940   62.6199   21.3380 H      1027      M_A    0.0000
  10583 C          25.6042   59.3324   22.2848 C.3    1028      M_A    0.0000
  10584 C          26.0957   58.6329   21.2169 C.3    1028      M_A    0.0000
  10585 C          25.9012   59.3350   20.0505 C.2    1028      M_A    0.0000
  10586 N          26.3626   58.8228   19.0343 N.3    1028      M_A    0.0000
  10587 O          25.3576   60.2813   19.9702 O.2    1028      M_A    0.0000
  10588 H          26.2017   60.0569   22.5542 H      1028      M_A    0.0000
  10589 H          25.5279   58.7447   23.0635 H      1028      M_A    0.0000
  10590 H          25.6240   57.7812   21.1176 H      1028      M_A    0.0000
  10591 H          27.0838   58.2811   19.1200 H      1028      M_A    0.0000
  10592 H          26.3335   59.3335   18.2901 H      1028      M_A    0.0000
  10593 C          27.4812   58.3299   21.3683 C.3    1029      M_A    0.0000
  10594 C          27.8547   57.1848   20.7197 C.3    1029      M_A    0.0000
  10595 C          28.0155   57.4237   19.3750 C.2    1029      M_A    0.0000
  10596 N          28.4116   56.4730   18.7063 N.3    1029      M_A    0.0000
  10597 O          27.7976   58.3724   18.8750 O.2    1029      M_A    0.0000
  10598 H          28.0113   59.1003   21.0856 H      1029      M_A    0.0000
  10599 H          27.6371   58.2361   22.3298 H      1029      M_A    0.0000
  10600 H          27.1612   56.4998   20.8054 H      1029      M_A    0.0000
  10601 H          28.9198   55.8455   19.1171 H      1029      M_A    0.0000
  10602 H          28.6231   56.6585   17.8481 H      1029      M_A    0.0000
  10603 C          29.0564   56.6346   21.2557 C.3    1030      M_A    0.0000
  10604 C          30.1487   56.8546   20.4620 C.3    1030      M_A    0.0000
  10605 C          29.8873   56.4734   19.1668 C.2    1030      M_A    0.0000
  10606 N          30.7838   56.6863   18.3551 N.3    1030      M_A    0.0000
  10607 O          28.9675   55.9863   18.8287 O.2    1030      M_A    0.0000
  10608 H          29.1886   56.9737   22.1624 H      1030      M_A    0.0000
  10609 H          28.8990   55.6734   21.3497 H      1030      M_A    0.0000
  10610 H          30.9088   56.3192   20.7676 H      1030      M_A    0.0000
  10611 H          31.3510   57.3739   18.5174 H      1030      M_A    0.0000
  10612 H          30.5718   56.5399   17.4895 H      1030      M_A    0.0000
  10613 C          30.5606   58.2199   20.4858 C.3    1031      M_A    0.0000
  10614 C          31.9193   58.3702   20.5372 C.3    1031      M_A    0.0000
  10615 C          32.3797   58.1539   21.8149 C.2    1031      M_A    0.0000
  10616 N          33.5980   58.2034   21.9602 N.3    1031      M_A    0.0000
  10617 O          31.7464   57.9687   22.6879 O.2    1031      M_A    0.0000
  10618 H          30.1692   58.6869   19.7222 H      1031      M_A    0.0000
  10619 H          30.1497   58.6156   21.2808 H      1031      M_A    0.0000
  10620 H          32.1732   59.2837   20.2948 H      1031      M_A    0.0000
  10621 H          34.1206   57.9932   21.2505 H      1031      M_A    0.0000
  10622 H          33.9066   57.9527   22.7710 H      1031      M_A    0.0000
  10623 C          32.5886   57.4945   19.6320 C.3    1032      M_A    0.0000
  10624 C          33.9135   57.7962   19.4735 C.3    1032      M_A    0.0000
  10625 C          34.6594   56.6460   19.3635 C.2    1032      M_A    0.0000
  10626 N          35.8592   56.8042   19.1552 N.3    1032      M_A    0.0000
  10627 O          34.2667   55.6301   19.4693 O.2    1032      M_A    0.0000
  10628 H          32.4555   56.5708   19.9209 H      1032      M_A    0.0000
  10629 H          32.1218   57.5772   18.7760 H      1032      M_A    0.0000
  10630 H          34.2514   58.2800   20.2542 H      1032      M_A    0.0000
  10631 H          36.1208   57.5551   18.7209 H      1032      M_A    0.0000
  10632 H          36.3275   56.0540   18.9726 H      1032      M_A    0.0000
  10633 C          34.1406   58.6252   18.3354 C.3    1033      M_A    0.0000
  10634 C          34.9709   59.6806   18.5967 C.3    1033      M_A    0.0000
  10635 C          34.3378   60.6057   19.3933 C.2    1033      M_A    0.0000
  10636 N          35.0177   61.5676   19.7402 N.3    1033      M_A    0.0000
  10637 O          33.2914   60.5515   19.7091 O.2    1033      M_A    0.0000
  10638 H          34.4686   58.0753   17.5976 H      1033      M_A    0.0000
  10639 H          33.2617   58.9521   18.0555 H      1033      M_A    0.0000
  10640 H          35.2145   60.1394   17.7674 H      1033      M_A    0.0000
  10641 H          35.9142   61.4544   19.8051 H      1033      M_A    0.0000
  10642 H          34.6394   62.1150   20.3508 H      1033      M_A    0.0000
  10643 C          36.1853   59.2642   19.2181 C.3    1034      M_A    0.0000
  10644 C          37.1757   58.9731   18.3204 C.3    1034      M_A    0.0000
  10645 C          36.6907   59.0250   17.0346 C.2    1034      M_A    0.0000
  10646 N          37.5153   58.8395   16.1438 N.3    1034      M_A    0.0000
  10647 O          35.6437   59.1935   16.7645 O.2    1034      M_A    0.0000
  10648 H          36.4644   59.9418   19.8641 H      1034      M_A    0.0000
  10649 H          35.9649   58.4684   19.7432 H      1034      M_A    0.0000
  10650 H          37.5105   58.0644   18.4611 H      1034      M_A    0.0000
  10651 H          38.3784   59.0593   16.3098 H      1034      M_A    0.0000
  10652 H          37.2218   58.9833   15.3020 H      1034      M_A    0.0000
  10653 C          38.2893   59.8550   18.4485 C.3    1035      M_A    0.0000
  10654 C          39.2283   59.6803   17.4691 C.3    1035      M_A    0.0000
  10655 C          38.8620   60.3509   16.3258 C.2    1035      M_A    0.0000
  10656 N          39.6684   60.3110   15.4005 N.3    1035      M_A    0.0000
  10657 O          37.9160   60.8826   16.1851 O.2    1035      M_A    0.0000
  10658 H          37.9667   60.7764   18.4862 H      1035      M_A    0.0000
  10659 H          38.6827   59.6731   19.3258 H      1035      M_A    0.0000
  10660 H          39.3044   58.7341   17.2312 H      1035      M_A    0.0000
  10661 H          40.5457   60.2114   15.6039 H      1035      M_A    0.0000
  10662 H          39.4804   60.8407   14.6937 H      1035      M_A    0.0000
  10663 C          40.5218   60.1136   17.8854 C.3    1036      M_A    0.0000
  10664 C          41.5387   59.4811   17.2242 C.3    1036      M_A    0.0000
  10665 C          41.9473   58.3681   17.9212 C.2    1036      M_A    0.0000
  10666 N          42.8178   57.6895   17.3830 N.3    1036      M_A    0.0000
  10667 O          41.5731   58.0710   18.9056 O.2    1036      M_A    0.0000
  10668 H          40.5781   61.0852   17.7998 H      1036      M_A    0.0000
  10669 H          40.5778   59.9256   18.8441 H      1036      M_A    0.0000
  10670 H          42.3169   60.0695   17.1475 H      1036      M_A    0.0000
  10671 H          42.8665   57.6986   16.4783 H      1036      M_A    0.0000
  10672 H          43.0059   56.9030   17.7848 H      1036      M_A    0.0000
  10673 C          41.1639   59.1063   15.9001 C.3    1037      M_A    0.0000
  10674 C          42.1877   58.5387   15.1923 C.3    1037      M_A    0.0000
  10675 C          42.6880   57.4464   15.8614 C.2    1037      M_A    0.0000
  10676 N          43.5734   56.8233   15.2819 N.3    1037      M_A    0.0000
  10677 O          42.3723   57.1209   16.8573 O.2    1037      M_A    0.0000
  10678 H          40.3801   58.5245   15.9406 H      1037      M_A    0.0000
  10679 H          40.8656   59.9267   15.4578 H      1037      M_A    0.0000
  10680 H          42.9267   59.1719   15.0898 H      1037      M_A    0.0000
  10681 H          43.5844   56.8417   14.3762 H      1037      M_A    0.0000
  10682 H          43.8230   56.0462   15.6683 H      1037      M_A    0.0000
  10683 C          41.7811   58.1524   13.8809 C.3    1038      M_A    0.0000
  10684 C          42.4664   58.8039   12.8923 C.3    1038      M_A    0.0000
  10685 C          43.8195   58.7574   13.1333 C.2    1038      M_A    0.0000
  10686 N          44.5342   59.2611   12.2711 N.3    1038      M_A    0.0000
  10687 O          44.2839   58.3330   14.0287 O.2    1038      M_A    0.0000
  10688 H          41.8506   57.1816   13.7959 H      1038      M_A    0.0000
  10689 H          40.8266   58.3589   13.8186 H      1038      M_A    0.0000
  10690 H          42.2150   59.7494   12.8659 H      1038      M_A    0.0000
  10691 H          44.2278   59.2750   11.4185 H      1038      M_A    0.0000
  10692 H          45.4221   59.1326   12.3739 H      1038      M_A    0.0000
  10693 C          42.1903   58.2602   11.6030 C.3    1039      M_A    0.0000
  10694 C          42.5595   59.0899   10.5799 C.3    1039      M_A    0.0000
  10695 C          42.6394   58.3911    9.3981 C.2    1039      M_A    0.0000
  10696 N          42.9044   59.0559    8.4003 N.3    1039      M_A    0.0000
  10697 O          42.5083   57.3093    9.2980 O.2    1039      M_A    0.0000
  10698 H          42.6079   57.3801   11.5293 H      1039      M_A    0.0000
  10699 H          41.2251   58.1019   11.5739 H      1039      M_A    0.0000
  10700 H          43.4467   59.4675   10.7470 H      1039      M_A    0.0000
  10701 H          42.6613   59.9286    8.3929 H      1039      M_A    0.0000
  10702 H          42.8473   58.6192    7.6119 H      1039      M_A    0.0000
  10703 C          41.6589   60.1855   10.4287 C.3    1040      M_A    0.0000
  10704 C          42.1646   61.1937    9.6546 C.3    1040      M_A    0.0000
  10705 C          42.6835   60.6891    8.4853 C.2    1040      M_A    0.0000
  10706 N          43.1097   61.5191    7.6869 N.3    1040      M_A    0.0000
  10707 O          42.7590   59.6255    8.2390 O.2    1040      M_A    0.0000
  10708 H          40.8053   59.8550   10.0873 H      1040      M_A    0.0000
  10709 H          41.4763   60.5160   11.3314 H      1040      M_A    0.0000
  10710 H          42.8974   61.6477   10.1178 H      1040      M_A    0.0000
  10711 H          42.7434   62.3476    7.6975 H      1040      M_A    0.0000
  10712 H          43.3467   61.1980    6.8768 H      1040      M_A    0.0000
  10713 C          41.1812   62.1824    9.3551 C.3    1041      M_A    0.0000
  10714 C          41.2927   63.3034   10.1312 C.3    1041      M_A    0.0000
  10715 C          42.4976   63.9269    9.9063 C.2    1041      M_A    0.0000
  10716 N          42.6749   64.9819   10.5092 N.3    1041      M_A    0.0000
  10717 O          43.2933   63.5421    9.2610 O.2    1041      M_A    0.0000
  10718 H          41.2167   62.3923    8.4016 H      1041      M_A    0.0000
  10719 H          40.3123   61.7575    9.5035 H      1041      M_A    0.0000
  10720 H          41.2679   63.0676   11.0807 H      1041      M_A    0.0000
  10721 H          41.9468   65.4734   10.7309 H      1041      M_A    0.0000
  10722 H          43.4142   65.4460   10.2779 H      1041      M_A    0.0000
  10723 C          40.2269   64.2223    9.8991 C.3    1042      M_A    0.0000
  10724 C          39.2334   64.1404   10.8360 C.3    1042      M_A    0.0000
  10725 C          39.7423   64.3469   12.0968 C.2    1042      M_A    0.0000
  10726 N          38.9216   64.3560   13.0102 N.3    1042      M_A    0.0000
  10727 O          40.8030   64.4768   12.3326 O.2    1042      M_A    0.0000
  10728 H          40.5913   65.1261    9.8301 H      1042      M_A    0.0000
  10729 H          39.8700   64.0092    9.0133 H      1042      M_A    0.0000
  10730 H          38.8325   63.2477   10.8344 H      1042      M_A    0.0000
  10731 H          38.0737   64.6110   12.8185 H      1042      M_A    0.0000
  10732 H          39.2386   64.6012   13.8195 H      1042      M_A    0.0000
  10733 C          38.1834   65.0723   10.5846 C.3    1043      M_A    0.0000
  10734 C          37.0269   64.4771   10.1608 C.3    1043      M_A    0.0000
  10735 C          36.2174   64.1805   11.2322 C.2    1043      M_A    0.0000
  10736 N          35.1222   63.6975   10.9578 N.3    1043      M_A    0.0000
  10737 O          36.4887   64.3224   12.2828 O.2    1043      M_A    0.0000
  10738 H          38.0426   65.6202   11.3811 H      1043      M_A    0.0000
  10739 H          38.5179   65.6820    9.8961 H      1043      M_A    0.0000
  10740 H          37.2216   63.6310    9.7093 H      1043      M_A    0.0000
  10741 H          34.7529   63.9066   10.1574 H      1043      M_A    0.0000
  10742 H          34.5494   63.6068   11.6500 H      1043      M_A    0.0000
  10743 C          36.3144   65.2934    9.2333 C.3    1044      M_A    0.0000
  10744 C          35.6964   66.3621    9.8227 C.3    1044      M_A    0.0000
  10745 C          36.4141   66.7915   10.9143 C.2    1044      M_A    0.0000
  10746 N          35.9782   67.7890   11.4825 N.3    1044      M_A    0.0000
  10747 O          37.3091   66.3017   11.3100 O.2    1044      M_A    0.0000
  10748 H          36.9192   65.5693    8.5175 H      1044      M_A    0.0000
  10749 H          35.6491   64.7122    8.8124 H      1044      M_A    0.0000
  10750 H          34.8088   66.1090   10.1481 H      1044      M_A    0.0000
  10751 H          35.5020   68.3843   10.9929 H      1044      M_A    0.0000
  10752 H          36.5072   68.1354   12.1273 H      1044      M_A    0.0000
  10753 C          35.5163   67.4446    8.9116 C.3    1045      M_A    0.0000
  10754 C          34.7810   68.4718    9.4365 C.3    1045      M_A    0.0000
  10755 C          35.4069   69.6757    9.2122 C.2    1045      M_A    0.0000
  10756 N          34.7990   70.6734    9.5901 N.3    1045      M_A    0.0000
  10757 O          36.3929   69.7950    8.7527 O.2    1045      M_A    0.0000
  10758 H          36.3896   67.7450    8.5929 H      1045      M_A    0.0000
  10759 H          35.0601   67.0715    8.1304 H      1045      M_A    0.0000
  10760 H          34.6958   68.3726   10.4064 H      1045      M_A    0.0000
  10761 H          33.8944   70.6342    9.6227 H      1045      M_A    0.0000
  10762 H          35.1554   71.4660    9.3445 H      1045      M_A    0.0000
  10763 C          33.4597   68.5116    8.9011 C.3    1046      M_A    0.0000
  10764 C          32.6663   69.4526    9.4981 C.3    1046      M_A    0.0000
  10765 C          31.3894   69.3980    8.9905 C.2    1046      M_A    0.0000
  10766 N          30.5765   70.1622    9.5035 N.3    1046      M_A    0.0000
  10767 O          31.0675   68.7523    8.1677 O.2    1046      M_A    0.0000
  10768 H          33.5089   68.6350    7.9332 H      1046      M_A    0.0000
  10769 H          33.0820   67.6194    9.0383 H      1046      M_A    0.0000
  10770 H          33.0054   70.3526    9.3174 H      1046      M_A    0.0000
  10771 H          30.7095   70.4102   10.3647 H      1046      M_A    0.0000
  10772 H          29.7174   70.0489    9.2491 H      1046      M_A    0.0000
  10773 C          32.6256   69.2963   10.9152 C.3    1047      M_A    0.0000
  10774 C          32.4179   70.4738   11.5798 C.3    1047      M_A    0.0000
  10775 C          32.1183   71.4810   10.6927 C.2    1047      M_A    0.0000
  10776 N          31.8519   72.5713   11.1910 N.3    1047      M_A    0.0000
  10777 O          32.1243   71.3808    9.6030 O.2    1047      M_A    0.0000
  10778 H          31.9560   68.6232   11.1451 H      1047      M_A    0.0000
  10779 H          33.4888   68.9141   11.1731 H      1047      M_A    0.0000
  10780 H          33.2280   70.7468   12.0562 H      1047      M_A    0.0000
  10781 H          31.4967   72.5834   12.0244 H      1047      M_A    0.0000
  10782 H          31.5480   73.2001   10.6186 H      1047      M_A    0.0000
  10783 C          31.3777   70.3641   12.5494 C.3    1048      M_A    0.0000
  10784 C          30.6949   71.5342   12.7394 C.3    1048      M_A    0.0000
  10785 C          29.8367   71.7667   11.6903 C.2    1048      M_A    0.0000
  10786 N          29.1271   72.7638   11.7903 N.3    1048      M_A    0.0000
  10787 O          29.7649   71.1502   10.7889 O.2    1048      M_A    0.0000
  10788 H          30.7834   69.6295   12.3013 H      1048      M_A    0.0000
  10789 H          31.8093   70.0891   13.3835 H      1048      M_A    0.0000
  10790 H          31.3138   72.2914   12.7731 H      1048      M_A    0.0000
  10791 H          28.9116   73.0517   12.6219 H      1048      M_A    0.0000
  10792 H          28.4884   72.8553   11.1585 H      1048      M_A    0.0000
  10793 C          29.9648   71.5341   13.9647 C.3    1049      M_A    0.0000
  10794 C          30.6746   72.0526   15.0129 C.3    1049      M_A    0.0000
  10795 C          31.9603   71.5644   15.0123 C.2    1049      M_A    0.0000
  10796 N          32.7042   72.0152   15.8790 N.3    1049      M_A    0.0000
  10797 O          32.3438   70.8057   14.3232 O.2    1049      M_A    0.0000
  10798 H          29.1154   71.9982   13.8325 H      1049      M_A    0.0000
  10799 H          29.7344   70.6005   14.1456 H      1049      M_A    0.0000
  10800 H          30.2712   71.7889   15.8646 H      1049      M_A    0.0000
  10801 H          32.5384   72.8494   16.1910 H      1049      M_A    0.0000
  10802 H          33.5735   71.7803   15.8102 H      1049      M_A    0.0000
  10803 C          30.7034   73.4783   14.9858 C.3    1050      M_A    0.0000
  10804 C          31.6360   74.0129   15.8319 C.2    1050      M_A    0.0000
  10805 C          32.8337   74.1888   15.1793 C.2    1050      M_A    0.0000
  10806 N          33.7259   74.7223   15.8329 N.3    1050      M_A    0.0000
  10807 O          33.0421   73.8720   14.1528 O.2    1050      M_A    0.0000
  10808 H          30.8291   73.7796   14.0650 H      1050      M_A    0.0000
  10809 H          29.8076   73.7749   15.2445 H      1050      M_A    0.0000
  10810 H          31.8072   73.4072   16.5812 H      1050      M_A    0.0000
  10811 H          33.4862   75.2901   16.4970 H      1050      M_A    0.0000
  10812 H          34.4727   74.9384   15.3734 H      1050      M_A    0.0000
  10813 C          18.3616   55.1773   14.2279 C.2    1051      M_A    0.0000
  10814 C          19.4278   54.8129   13.4514 C.3    1051      M_A    0.0000
  10815 C          20.4293   55.7522   13.5370 C.2    1051      M_A    0.0000
  10816 N          21.4614   55.4914   12.9243 N.3    1051      M_A    0.0000
  10817 O          20.3578   56.6991   14.0815 O.2    1051      M_A    0.0000
  10818 H          18.6439   55.6022   15.0614 H      1051      M_A    0.0000
  10819 H          17.8524   54.3838   14.4910 H      1051      M_A    0.0000
  10820 H          19.1656   54.7624   12.5096 H      1051      M_A    0.0000
  10821 H          21.6704   54.6193   12.7932 H      1051      M_A    0.0000
  10822 H          22.1557   56.0506   13.0700 H      1051      M_A    0.0000
  10823 C          19.9401   53.5317   13.8137 C.3    1052      M_A    0.0000
  10824 C          18.9985   52.7177   14.3824 C.3    1052      M_A    0.0000
  10825 C          18.0613   52.3400   13.4490 C.2    1052      M_A    0.0000
  10826 N          17.2015   51.5553   13.8411 N.3    1052      M_A    0.0000
  10827 O          18.0216   52.7015   12.4165 O.2    1052      M_A    0.0000
  10828 H          20.3566   53.1192   13.0317 H      1052      M_A    0.0000
  10829 H          20.6669   53.6971   14.4481 H      1052      M_A    0.0000
  10830 H          18.5181   53.1914   15.0916 H      1052      M_A    0.0000
  10831 H          17.4147   50.9936   14.5196 H      1052      M_A    0.0000
  10832 H          16.6551   51.2219   13.2037 H      1052      M_A    0.0000
  10833 C          19.5815   51.5572   14.9731 C.3    1053      M_A    0.0000
  10834 C          19.5441   51.5741   16.3409 C.3    1053      M_A    0.0000
  10835 C          18.3409   51.0866   16.7959 C.2    1053      M_A    0.0000
  10836 N          18.2253   51.0000   18.0157 N.3    1053      M_A    0.0000
  10837 O          17.4974   50.8012   16.1593 O.2    1053      M_A    0.0000
  10838 H          19.1533   50.7597   14.6049 H      1053      M_A    0.0000
  10839 H          20.5097   51.5298   14.6638 H      1053      M_A    0.0000
  10840 H          19.6239   52.4906   16.6755 H      1053      M_A    0.0000
  10841 H          18.9768   50.8780   18.5073 H      1053      M_A    0.0000
  10842 H          17.4829   50.5780   18.3102 H      1053      M_A    0.0000
  10843 C          20.6131   50.8234   16.9143 C.3    1054      M_A    0.0000
  10844 C          21.4790   51.5922   17.6435 C.3    1054      M_A    0.0000
  10845 C          20.7987   52.5879   18.3053 C.2    1054      M_A    0.0000
  10846 N          21.4760   53.3009   19.0413 N.3    1054      M_A    0.0000
  10847 O          19.7283   52.7929   18.2027 O.2    1054      M_A    0.0000
  10848 H          20.2431   50.0884   17.4415 H      1054      M_A    0.0000
  10849 H          21.0856   50.4049   16.1661 H      1054      M_A    0.0000
  10850 H          22.1260   52.0326   17.0556 H      1054      M_A    0.0000
  10851 H          22.2249   52.9455   19.4076 H      1054      M_A    0.0000
  10852 H          21.0148   53.8801   19.5589 H      1054      M_A    0.0000
  10853 C          22.2239   50.8161   18.5807 C.3    1055      M_A    0.0000
  10854 C          23.5319   50.6449   18.2171 C.3    1055      M_A    0.0000
  10855 C          24.3494   50.6935   19.3225 C.2    1055      M_A    0.0000
  10856 N          25.5426   50.4887   19.1151 N.3    1055      M_A    0.0000
  10857 O          24.0166   50.9191   20.3406 O.2    1055      M_A    0.0000
  10858 H          22.1399   51.2164   19.4682 H      1055      M_A    0.0000
  10859 H          21.7750   49.9480   18.6349 H      1055      M_A    0.0000
  10860 H          23.8194   51.3648   17.6194 H      1055      M_A    0.0000
  10861 H          25.7692   49.9682   18.4087 H      1055      M_A    0.0000
  10862 H          26.0605   50.4101   19.8511 H      1055      M_A    0.0000
  10863 C          23.7374   49.4156   17.5228 C.3    1056      M_A    0.0000
  10864 C          24.7168   49.4937   16.5704 C.3    1056      M_A    0.0000
  10865 C          25.9293   49.1083   17.0936 C.2    1056      M_A    0.0000
  10866 N          26.8692   49.0821   16.3033 N.3    1056      M_A    0.0000
  10867 O          26.1083   48.8532   18.1429 O.2    1056      M_A    0.0000
  10868 H          23.9129   48.7058   18.1711 H      1056      M_A    0.0000
  10869 H          22.8812   49.1910   17.1050 H      1056      M_A    0.0000
  10870 H          24.8217   50.4162   16.2603 H      1056      M_A    0.0000
  10871 H          26.6865   48.9310   15.4286 H      1056      M_A    0.0000
  10872 H          27.6364   48.7241   16.6183 H      1056      M_A    0.0000
  10873 C          24.4141   48.6980   15.4256 C.3    1057      M_A    0.0000
  10874 C          25.5140   48.0824   14.8929 C.3    1057      M_A    0.0000
  10875 C          25.7812   46.9104   15.5617 C.2    1057      M_A    0.0000
  10876 N          26.7156   46.2448   15.1227 N.3    1057      M_A    0.0000
  10877 O          25.2444   46.5559   16.4473 O.2    1057      M_A    0.0000
  10878 H          23.7119   48.0584   15.6554 H      1057      M_A    0.0000
  10879 H          24.0184   49.3049   14.7674 H      1057      M_A    0.0000
  10880 H          26.3055   48.6506   14.9882 H      1057      M_A    0.0000
  10881 H          26.9126   46.3164   14.2411 H      1057      M_A    0.0000
  10882 H          26.8200   45.4260   15.4897 H      1057      M_A    0.0000
  10883 C          25.3549   47.8143   13.5007 C.3    1058      M_A    0.0000
  10884 C          25.8467   46.5926   13.1292 C.3    1058      M_A    0.0000
  10885 C          25.9849   46.5244   11.7622 C.2    1058      M_A    0.0000
  10886 N          26.4790   45.4882   11.3253 N.3    1058      M_A    0.0000
  10887 O          25.6708   47.3025   11.0593 O.2    1058      M_A    0.0000
  10888 H          24.4140   47.9193   13.2587 H      1058      M_A    0.0000
  10889 H          25.8338   48.5256   13.0287 H      1058      M_A    0.0000
  10890 H          25.2275   45.8799   13.3879 H      1058      M_A    0.0000
  10891 H          27.0488   45.0292   11.8600 H      1058      M_A    0.0000
  10892 H          26.6721   45.4877   10.4428 H      1058      M_A    0.0000
  10893 C          27.0982   46.3080   13.7523 C.3    1059      M_A    0.0000
  10894 C          27.9692   45.6456   12.9306 C.3    1059      M_A    0.0000
  10895 C          29.0909   45.2607   13.6278 C.2    1059      M_A    0.0000
  10896 N          29.9134   44.6019   12.9967 N.3    1059      M_A    0.0000
  10897 O          29.3007   45.5164   14.6712 O.2    1059      M_A    0.0000
  10898 H          27.4808   47.1378   14.0987 H      1059      M_A    0.0000
  10899 H          26.8946   45.7590   14.5367 H      1059      M_A    0.0000
  10900 H          28.2717   46.2313   12.2070 H      1059      M_A    0.0000
  10901 H          29.6150   44.0958   12.3067 H      1059      M_A    0.0000
  10902 H          30.5930   44.2557   13.4808 H      1059      M_A    0.0000
  10903 C          27.3674   44.5038   12.3226 C.3    1060      M_A    0.0000
  10904 C          28.2327   43.7972   11.5323 C.3    1060      M_A    0.0000
  10905 C          28.9453   42.8938   12.2863 C.2    1060      M_A    0.0000
  10906 N          29.7098   42.1618   11.6630 N.3    1060      M_A    0.0000
  10907 O          28.8923   42.8046   13.3760 O.2    1060      M_A    0.0000
  10908 H          26.9653   43.9449   13.0161 H      1060      M_A    0.0000
  10909 H          26.6222   44.8410   11.7850 H      1060      M_A    0.0000
  10910 H          28.8850   44.3966   11.1158 H      1060      M_A    0.0000
  10911 H          29.5079   41.9701   10.8006 H      1060      M_A    0.0000
  10912 H          30.0925   41.4972   12.1404 H      1060      M_A    0.0000
  10913 C          27.5571   43.1141   10.4777 C.3    1061      M_A    0.0000
  10914 C          28.3858   42.3155    9.7374 C.3    1061      M_A    0.0000
  10915 C          27.7859   41.9697    8.5487 C.2    1061      M_A    0.0000
  10916 N          28.4706   41.3018    7.7781 N.3    1061      M_A    0.0000
  10917 O          26.7601   42.2252    8.2648 O.2    1061      M_A    0.0000
  10918 H          26.8033   42.6151   10.8490 H      1061      M_A    0.0000
  10919 H          27.1651   43.8079    9.9094 H      1061      M_A    0.0000
  10920 H          28.5745   41.4812   10.2135 H      1061      M_A    0.0000
  10921 H          29.3713   41.3939    7.8192 H      1061      M_A    0.0000
  10922 H          28.1201   41.1699    6.9560 H      1061      M_A    0.0000
  10923 C          29.6403   42.9428    9.4765 C.3    1062      M_A    0.0000
  10924 C          30.3066   42.3914    8.4161 C.3    1062      M_A    0.0000
  10925 C          30.0005   43.0609    7.2540 C.2    1062      M_A    0.0000
  10926 N          30.5949   42.6846    6.2471 N.3    1062      M_A    0.0000
  10927 O          29.2661   43.8681    7.1687 O.2    1062      M_A    0.0000
  10928 H          29.5017   43.9034    9.3624 H      1062      M_A    0.0000
  10929 H          30.1706   42.8440   10.2932 H      1062      M_A    0.0000
  10930 H          30.0355   41.4597    8.2869 H      1062      M_A    0.0000
  10931 H          31.4141   42.3110    6.3504 H      1062      M_A    0.0000
  10932 H          30.4786   43.1937    5.5100 H      1062      M_A    0.0000
  10933 C          31.7196   42.3938    8.6127 C.3    1063      M_A    0.0000
  10934 C          32.3914   43.1295    7.6746 C.3    1063      M_A    0.0000
  10935 C          31.7849   44.3512    7.4959 C.2    1063      M_A    0.0000
  10936 N          32.3453   45.1181    6.7169 N.3    1063      M_A    0.0000
  10937 O          30.8505   44.6646    7.9721 O.2    1063      M_A    0.0000
  10938 H          31.9170   42.6921    9.5221 H      1063      M_A    0.0000
  10939 H          32.0034   41.4580    8.5704 H      1063      M_A    0.0000
  10940 H          32.3771   42.6757    6.8074 H      1063      M_A    0.0000
  10941 H          33.2422   45.0398    6.6131 H      1063      M_A    0.0000
  10942 H          32.0115   45.9568    6.6843 H      1063      M_A    0.0000
  10943 C          33.7609   43.3210    8.0256 C.3    1064      M_A    0.0000
  10944 C          34.6014   43.2918    6.9461 C.3    1064      M_A    0.0000
  10945 C          34.3384   42.1935    6.1605 C.2    1064      M_A    0.0000
  10946 N          34.9975   42.1039    5.1279 N.3    1064      M_A    0.0000
  10947 O          33.6168   41.4066    6.4019 O.2    1064      M_A    0.0000
  10948 H          33.8490   44.1497    8.5359 H      1064      M_A    0.0000
  10949 H          33.9878   42.5990    8.6463 H      1064      M_A    0.0000
  10950 H          35.5327   43.2158    7.2378 H      1064      M_A    0.0000
  10951 H          35.3000   42.8689    4.7477 H      1064      M_A    0.0000
  10952 H          34.7488   41.4472    4.5598 H      1064      M_A    0.0000
  10953 C          34.5033   44.4781    6.1598 C.3    1065      M_A    0.0000
  10954 C          34.3285   44.2259    4.8262 C.3    1065      M_A    0.0000
  10955 C          33.5892   43.0800    4.6455 C.2    1065      M_A    0.0000
  10956 N          33.3203   42.7945    3.4815 N.3    1065      M_A    0.0000
  10957 O          33.2552   42.4146    5.4480 O.2    1065      M_A    0.0000
  10958 H          33.7943   45.0455    6.5211 H      1065      M_A    0.0000
  10959 H          35.3378   44.9697    6.3010 H      1065      M_A    0.0000
  10960 H          35.1916   44.0791    4.3883 H      1065      M_A    0.0000
  10961 H          33.2606   43.4697    2.8800 H      1065      M_A    0.0000
  10962 H          32.7440   42.1080    3.3693 H      1065      M_A    0.0000
  10963 C          33.6969   45.3146    4.1544 C.3    1066      M_A    0.0000
  10964 C          32.4888   44.9796    3.6061 C.2    1066      M_A    0.0000
  10965 C          31.4711   45.2193    4.5000 C.2    1066      M_A    0.0000
  10966 N          30.3340   45.0101    4.0852 N.3    1066      M_A    0.0000
  10967 O          31.6081   45.5526    5.5336 O.2    1066      M_A    0.0000
  10968 H          33.6233   46.0716    4.7680 H      1066      M_A    0.0000
  10969 H          34.3163   45.5988    3.4518 H      1066      M_A    0.0000
  10970 H          32.4610   44.0245    3.3935 H      1066      M_A    0.0000
  10971 H          30.1827   45.0945    3.1956 H      1066      M_A    0.0000
  10972 H          29.6633   45.2721    4.6307 H      1066      M_A    0.0000
  10973 C          26.1552   42.3053   29.5698 C.2    1067      M_A    0.0000
  10974 C          24.6512   42.4134   29.2804 C.3    1067      M_A    0.0000
  10975 C          24.0196   43.5456   30.1181 C.2    1067      M_A    0.0000
  10976 N          22.6814   43.7851   29.8919 N.3    1067      M_A    0.0000
  10977 O          24.6106   44.2091   30.9660 O.2    1067      M_A    0.0000
  10978 H          26.3881   42.5206   30.6194 H      1067      M_A    0.0000
  10979 H          26.7057   43.0512   28.9808 H      1067      M_A    0.0000
  10980 H          24.1369   41.4844   29.5612 H      1067      M_A    0.0000
  10981 H          22.3044   43.5636   28.9738 H      1067      M_A    0.0000
  10982 H          22.2983   44.6057   30.3471 H      1067      M_A    0.0000
  10983 C          24.3556   42.6644   27.7273 C.3    1068      M_A    0.0000
  10984 C          23.0273   42.0524   27.2598 C.3    1068      M_A    0.0000
  10985 C          22.6088   42.6453   25.8976 C.2    1068      M_A    0.0000
  10986 N          21.4627   42.1202   25.3406 N.3    1068      M_A    0.0000
  10987 O          23.2009   43.5462   25.3089 O.2    1068      M_A    0.0000
  10988 H          24.4082   43.7397   27.5194 H      1068      M_A    0.0000
  10989 H          25.1919   42.2110   27.1785 H      1068      M_A    0.0000
  10990 H          22.2233   42.2876   27.9702 H      1068      M_A    0.0000
  10991 H          21.2127   41.1627   25.5745 H      1068      M_A    0.0000
  10992 H          21.2574   42.4180   24.3938 H      1068      M_A    0.0000
  10993 C          23.1072   40.4573   27.1504 C.3    1069      M_A    0.0000
  10994 C          22.4578   39.9074   25.8723 C.3    1069      M_A    0.0000
  10995 C          20.9482   40.2288   25.8518 C.2    1069      M_A    0.0000
  10996 N          20.2678   39.8443   24.7166 N.3    1069      M_A    0.0000
  10997 O          20.3293   40.7661   26.7665 O.2    1069      M_A    0.0000
  10998 H          24.1524   40.1411   27.2489 H      1069      M_A    0.0000
  10999 H          22.5892   40.0626   28.0348 H      1069      M_A    0.0000
  11000 H          22.5514   38.8138   25.8322 H      1069      M_A    0.0000
  11001 H          20.7862   39.7910   23.8434 H      1069      M_A    0.0000
  11002 H          19.3086   40.1648   24.6490 H      1069      M_A    0.0000
  11003 C          23.1492   40.4880   24.5504 C.3    1070      M_A    0.0000
  11004 C          22.3771   40.1487   23.2674 C.3    1070      M_A    0.0000
  11005 C          21.1997   39.2008   23.5799 C.2    1070      M_A    0.0000
  11006 N          20.3881   38.8794   22.5134 N.3    1070      M_A    0.0000
  11007 O          20.9630   38.7095   24.6805 O.2    1070      M_A    0.0000
  11008 H          23.2989   41.5681   24.6664 H      1070      M_A    0.0000
  11009 H          24.1547   40.0479   24.5114 H      1070      M_A    0.0000
  11010 H          23.0270   39.6249   22.5535 H      1070      M_A    0.0000
  11011 H          20.3106   39.5495   21.7525 H      1070      M_A    0.0000
  11012 H          19.5473   38.3612   22.7410 H      1070      M_A    0.0000
  11013 C          21.8303   41.4609   22.5315 C.3    1071      M_A    0.0000
  11014 C          20.4701   41.9302   23.0673 C.3    1071      M_A    0.0000
  11015 C          20.4328   41.8319   24.6073 C.2    1071      M_A    0.0000
  11016 N          19.2826   42.2927   25.2107 N.3    1071      M_A    0.0000
  11017 O          21.3260   41.3595   25.3054 O.2    1071      M_A    0.0000
  11018 H          22.5894   42.2500   22.5901 H      1071      M_A    0.0000
  11019 H          21.7463   41.2034   21.4671 H      1071      M_A    0.0000
  11020 H          19.6638   41.2883   22.6874 H      1071      M_A    0.0000
  11021 H          18.7518   43.0190   24.7365 H      1071      M_A    0.0000
  11022 H          19.3072   42.3445   26.2227 H      1071      M_A    0.0000
  11023 C          20.1318   43.4282   22.6157 C.3    1072      M_A    0.0000
  11024 C          18.8936   44.0044   23.3175 C.3    1072      M_A    0.0000
  11025 C          19.2765   44.5932   24.6919 C.2    1072      M_A    0.0000
  11026 N          18.2563   45.2040   25.3888 N.3    1072      M_A    0.0000
  11027 O          20.3932   44.5308   25.1994 O.2    1072      M_A    0.0000
  11028 H          21.0174   44.0578   22.7624 H      1072      M_A    0.0000
  11029 H          19.9656   43.3916   21.5307 H      1072      M_A    0.0000
  11030 H          18.1537   43.2144   23.5041 H      1072      M_A    0.0000
  11031 H          17.4926   45.6140   24.8571 H      1072      M_A    0.0000
  11032 H          18.5323   45.6981   26.2297 H      1072      M_A    0.0000
  11033 C          18.1712   45.1269   22.4339 C.3    1073      M_A    0.0000
  11034 C          18.6162   46.5528   22.7892 C.3    1073      M_A    0.0000
  11035 C          18.1443   47.5508   21.7105 C.2    1073      M_A    0.0000
  11036 N          18.4257   48.8776   21.9557 N.3    1073      M_A    0.0000
  11037 O          17.5738   47.2437   20.6671 O.2    1073      M_A    0.0000
  11038 H          18.3224   44.9021   21.3714 H      1073      M_A    0.0000
  11039 H          17.0938   45.0135   22.6146 H      1073      M_A    0.0000
  11040 H          19.7121   46.6169   22.8251 H      1073      M_A    0.0000
  11041 H          18.5059   49.1784   22.9237 H      1073      M_A    0.0000
  11042 H          18.0086   49.5416   21.3135 H      1073      M_A    0.0000
  11043 C          18.0705   47.0119   24.2224 C.3    1074      M_A    0.0000
  11044 C          17.8490   48.5278   24.3258 C.3    1074      M_A    0.0000
  11045 C          16.5877   48.9446   23.5398 C.2    1074      M_A    0.0000
  11046 N          16.2457   50.2775   23.6163 N.3    1074      M_A    0.0000
  11047 O          15.9053   48.1909   22.8508 O.2    1074      M_A    0.0000
  11048 H          17.1614   46.4468   24.4601 H      1074      M_A    0.0000
  11049 H          18.8236   46.6914   24.9547 H      1074      M_A    0.0000
  11050 H          18.6944   49.0719   23.8836 H      1074      M_A    0.0000
  11051 H          16.5170   50.7937   24.4493 H      1074      M_A    0.0000
  11052 H          15.3530   50.5268   23.2060 H      1074      M_A    0.0000
  11053 C          17.7202   49.0129   25.8459 C.3    1075      M_A    0.0000
  11054 C          17.7783   50.5396   25.9985 C.3    1075      M_A    0.0000
  11055 C          16.8011   51.0106   27.0965 C.2    1075      M_A    0.0000
  11056 N          16.8147   52.3605   27.3737 N.3    1075      M_A    0.0000
  11057 O          16.0178   50.2838   27.7022 O.2    1075      M_A    0.0000
  11058 H          16.8076   48.5907   26.2830 H      1075      M_A    0.0000
  11059 H          18.5553   48.5491   26.3879 H      1075      M_A    0.0000
  11060 H          17.4713   51.0321   25.0660 H      1075      M_A    0.0000
  11061 H          17.6768   52.8739   27.2089 H      1075      M_A    0.0000
  11062 H          16.2674   52.6503   28.1762 H      1075      M_A    0.0000
  11063 C          19.2562   51.0528   26.3377 C.3    1076      M_A    0.0000
  11064 C          19.4232   51.5775   27.4026 C.3    1076      M_A    0.0000
  11065 C          18.3663   51.8950   27.8869 C.2    1076      M_A    0.0000
  11066 N          18.4125   52.3263   28.8717 N.3    1076      M_A    0.0000
  11067 O          17.5146   51.8085   27.4548 O.2    1076      M_A    0.0000
  11068 H          19.8717   50.4850   26.1598 H      1076      M_A    0.0000
  11069 H          19.2905   51.6394   25.7131 H      1076      M_A    0.0000
  11070 H          19.8828   52.2962   27.3153 H      1076      M_A    0.0000
  11071 H          19.0166   52.1176   29.3428 H      1076      M_A    0.0000
  11072 H          17.7158   52.4441   29.2281 H      1076      M_A    0.0000
  11073 C          20.0438   50.8383   28.1968 C.3    1077      M_A    0.0000
  11074 C          20.2367   51.3504   29.2634 C.3    1077      M_A    0.0000
  11075 C          19.2086   51.7908   29.7122 C.2    1077      M_A    0.0000
  11076 N          19.2734   52.2232   30.6955 N.3    1077      M_A    0.0000
  11077 O          18.3663   51.7980   29.2538 O.2    1077      M_A    0.0000
  11078 H          19.6299   50.0924   28.2691 H      1077      M_A    0.0000
  11079 H          20.7919   50.6558   27.8194 H      1077      M_A    0.0000
  11080 H          20.7779   52.0112   29.1866 H      1077      M_A    0.0000
  11081 H          19.8349   51.9513   31.1866 H      1077      M_A    0.0000
  11082 H          18.5840   52.4229   31.0289 H      1077      M_A    0.0000
  11083 C          20.7441   50.5527   30.0811 C.3    1078      M_A    0.0000
  11084 C          21.3937   51.0972   30.9288 C.3    1078      M_A    0.0000
  11085 C          20.8369   52.0954   31.3111 C.2    1078      M_A    0.0000
  11086 N          21.3208   52.6241   32.1137 N.3    1078      M_A    0.0000
  11087 O          20.0248   52.4481   30.9426 O.2    1078      M_A    0.0000
  11088 H          20.1274   50.0618   30.4152 H      1078      M_A    0.0000
  11089 H          21.2419   50.0250   29.6237 H      1078      M_A    0.0000
  11090 H          22.1538   51.3409   30.6155 H      1078      M_A    0.0000
  11091 H          21.7746   52.2078   32.6148 H      1078      M_A    0.0000
  11092 H          20.9086   53.2214   32.4292 H      1078      M_A    0.0000
  11093 C          21.6206   50.3447   31.9006 C.3    1079      M_A    0.0000
  11094 C          22.7893   50.1463   32.0794 C.3    1079      M_A    0.0000
  11095 C          23.2867   51.0662   32.6784 C.2    1079      M_A    0.0000
  11096 N          24.3260   50.9526   32.9332 N.3    1079      M_A    0.0000
  11097 O          22.8336   51.8769   32.9173 O.2    1079      M_A    0.0000
  11098 H          21.2388   50.6624   32.5980 H      1079      M_A    0.0000
  11099 H          21.2203   49.6057   31.7302 H      1079      M_A    0.0000
  11100 H          23.2023   50.0848   31.3303 H      1079      M_A    0.0000
  11101 H          24.6077   50.2170   33.0333 H      1079      M_A    0.0000
  11102 H          24.6259   51.5095   33.4089 H      1079      M_A    0.0000
  11103 C          22.9940   49.0811   32.7005 C.3    1080      M_A    0.0000
  11104 C          24.1513   48.8995   32.9551 C.3    1080      M_A    0.0000
  11105 C          24.4046   49.2874   34.0677 C.2    1080      M_A    0.0000
  11106 N          25.4116   49.1161   34.4060 N.3    1080      M_A    0.0000
  11107 O          23.7894   49.7431   34.6451 O.2    1080      M_A    0.0000
  11108 H          22.5049   49.0664   33.4030 H      1080      M_A    0.0000
  11109 H          22.7017   48.4507   32.1980 H      1080      M_A    0.0000
  11110 H          24.6509   49.3429   32.4173 H      1080      M_A    0.0000
  11111 H          25.8072   48.4980   34.1031 H      1080      M_A    0.0000
  11112 H          25.5509   49.2812   35.1674 H      1080      M_A    0.0000
  11113 C          24.4715   47.6962   32.8469 C.3    1081      M_A    0.0000
  11114 C          24.1783   47.0428   33.8082 C.3    1081      M_A    0.0000
  11115 C          22.9844   46.8889   33.8657 C.2    1081      M_A    0.0000
  11116 N          22.6299   46.2668   34.6690 N.3    1081      M_A    0.0000
  11117 O          22.3483   47.2902   33.2707 O.2    1081      M_A    0.0000
  11118 H          24.1330   47.3784   32.1276 H      1081      M_A    0.0000
  11119 H          25.3212   47.6837   32.7317 H      1081      M_A    0.0000
  11120 H          24.4123   47.4452   34.5284 H      1081      M_A    0.0000
  11121 H          23.1151   45.7029   34.9465 H      1081      M_A    0.0000
  11122 H          21.8596   46.0866   34.6496 H      1081      M_A    0.0000
  11123 C          24.7456   45.9291   33.8084 C.3    1082      M_A    0.0000
  11124 C          24.0540   45.0484   33.3804 C.3    1082      M_A    0.0000
  11125 C          24.6782   44.0202   33.3054 C.2    1082      M_A    0.0000
  11126 N          24.1232   43.1572   32.9811 N.3    1082      M_A    0.0000
  11127 O          25.6146   43.9298   33.4917 O.2    1082      M_A    0.0000
  11128 H          25.4864   45.9904   33.3836 H      1082      M_A    0.0000
  11129 H          24.9556   45.7672   34.6239 H      1082      M_A    0.0000
  11130 H          23.7856   45.2348   32.5875 H      1082      M_A    0.0000
  11131 H          23.3438   43.1367   33.1311 H      1082      M_A    0.0000
  11132 H          24.5061   42.4660   33.0253 H      1082      M_A    0.0000
  11133 C          23.0347   44.8706   34.0814 C.3    1083      M_A    0.0000
  11134 C          23.1941   44.0553   34.9458 C.3    1083      M_A    0.0000
  11135 C          23.4904   44.5926   35.9831 C.2    1083      M_A    0.0000
  11136 N          23.6011   43.9421   36.8331 N.3    1083      M_A    0.0000
  11137 O          23.6483   45.5323   36.0908 O.2    1083      M_A    0.0000
  11138 H          22.7736   45.6233   34.3946 H      1083      M_A    0.0000
  11139 H          22.4171   44.6127   33.5453 H      1083      M_A    0.0000
  11140 H          23.8395   43.5271   34.7460 H      1083      M_A    0.0000
  11141 H          23.1848   43.2661   36.8427 H      1083      M_A    0.0000
  11142 H          23.6988   44.3024   37.5309 H      1083      M_A    0.0000
  11143 C          22.1783   43.3471   35.1149 C.3    1084      M_A    0.0000
  11144 C          21.8666   43.2386   36.2674 C.3    1084      M_A    0.0000
  11145 C          22.2208   44.2057   36.8932 C.2    1084      M_A    0.0000
  11146 N          21.9361   44.2229   37.9308 N.3    1084      M_A    0.0000
  11147 O          22.7418   44.9293   36.5401 O.2    1084      M_A    0.0000
  11148 H          21.5379   43.6545   34.6370 H      1084      M_A    0.0000
  11149 H          22.3660   42.5768   34.7880 H      1084      M_A    0.0000
  11150 H          22.2519   42.5588   36.6207 H      1084      M_A    0.0000
  11151 H          21.2779   43.8333   38.1439 H      1084      M_A    0.0000
  11152 H          22.0827   44.8985   38.3160 H      1084      M_A    0.0000
  11153 C          20.6350   43.0765   36.4063 C.3    1085      M_A    0.0000
  11154 C          20.3528   42.0306   36.9196 C.3    1085      M_A    0.0000
  11155 C          19.4177   42.1664   37.6677 C.2    1085      M_A    0.0000
  11156 N          19.0569   41.2668   38.1353 N.3    1085      M_A    0.0000
  11157 O          19.0006   43.0030   37.8812 O.2    1085      M_A    0.0000
  11158 H          20.3101   43.7424   36.8352 H      1085      M_A    0.0000
  11159 H          20.2976   43.1175   35.6190 H      1085      M_A    0.0000
  11160 H          21.0080   41.7399   37.3905 H      1085      M_A    0.0000
  11161 H          19.1598   40.5794   37.7515 H      1085      M_A    0.0000
  11162 H          18.3856   41.3398   38.5480 H      1085      M_A    0.0000
  11163 C          20.0890   41.1495   36.0732 C.3    1086      M_A    0.0000
  11164 C          18.9689   40.7316   36.1623 C.3    1086      M_A    0.0000
  11165 C          18.2133   41.6143   36.4824 C.2    1086      M_A    0.0000
  11166 N          17.1728   41.3449   36.5348 N.3    1086      M_A    0.0000
  11167 O          18.4755   42.5093   36.7059 O.2    1086      M_A    0.0000
  11168 H          20.2572   41.4520   35.2902 H      1086      M_A    0.0000
  11169 H          20.6502   40.5148   36.2051 H      1086      M_A    0.0000
  11170 H          18.9198   40.1293   36.7708 H      1086      M_A    0.0000
  11171 H          16.9164   40.7536   36.0711 H      1086      M_A    0.0000
  11172 H          16.6683   41.9438   36.6487 H      1086      M_A    0.0000
  11173 C          18.5774   40.2099   35.0961 C.3    1087      M_A    0.0000
  11174 C          17.9239   39.2198   35.2687 C.3    1087      M_A    0.0000
  11175 C          18.3162   38.6187   36.2367 C.2    1087      M_A    0.0000
  11176 N          17.7538   37.7408   36.5032 N.3    1087      M_A    0.0000
  11177 O          19.0865   38.8551   36.7567 O.2    1087      M_A    0.0000
  11178 H          18.1570   40.7953   34.6339 H      1087      M_A    0.0000
  11179 H          19.2839   40.0208   34.6483 H      1087      M_A    0.0000
  11180 H          17.9988   38.6892   34.5991 H      1087      M_A    0.0000
  11181 H          16.9848   37.7163   36.3074 H      1087      M_A    0.0000
  11182 H          17.9503   37.4029   37.1913 H      1087      M_A    0.0000
  11183 C          16.7079   39.4779   35.3990 C.3    1088      M_A    0.0000
  11184 C          16.2304   39.0063   36.3923 C.2    1088      M_A    0.0000
  11185 C          16.3029   39.7873   37.3073 C.2    1088      M_A    0.0000
  11186 N          15.8493   39.4714   38.2305 N.3    1088      M_A    0.0000
  11187 O          16.7435   40.6383   37.2710 O.2    1088      M_A    0.0000
  11188 H          16.5943   40.3256   35.3596 H      1088      M_A    0.0000
  11189 H          16.3191   39.1567   34.7055 H      1088      M_A    0.0000
  11190 H          16.6620   38.3042   36.6297 H      1088      M_A    0.0000
  11191 H          15.2416   38.9618   38.1927 H      1088      M_A    0.0000
  11192 H          15.8107   40.0199   38.7996 H      1088      M_A    0.0000
  11193 C          10.2030   44.1491   33.4020 C.2    1089      M_A    0.0000
  11194 C           9.3592   44.9928   32.4358 C.3    1089      M_A    0.0000
  11195 C           7.9501   45.2337   33.0178 C.2    1089      M_A    0.0000
  11196 N           7.1207   46.0402   32.2687 N.3    1089      M_A    0.0000
  11197 O           7.5257   44.7458   34.0620 O.2    1089      M_A    0.0000
  11198 H          10.4296   44.6895   34.3288 H      1089      M_A    0.0000
  11199 H          11.1742   43.9144   32.9460 H      1089      M_A    0.0000
  11200 H           9.2240   44.4662   31.4814 H      1089      M_A    0.0000
  11201 H           7.5489   46.7430   31.6715 H      1089      M_A    0.0000
  11202 H           6.2449   46.2994   32.7081 H      1089      M_A    0.0000
  11203 C          10.0515   46.3976   32.1044 C.3    1090      M_A    0.0000
  11204 C          11.5735   46.2936   31.9309 C.3    1090      M_A    0.0000
  11205 C          11.9188   45.5162   30.6430 C.2    1090      M_A    0.0000
  11206 N          13.2603   45.4173   30.3425 N.3    1090      M_A    0.0000
  11207 O          11.0996   44.9748   29.9052 O.2    1090      M_A    0.0000
  11208 H           9.5671   46.8400   31.2258 H      1090      M_A    0.0000
  11209 H           9.8138   47.0629   32.9454 H      1090      M_A    0.0000
  11210 H          12.0198   45.7388   32.7673 H      1090      M_A    0.0000
  11211 H          13.8793   46.1543   30.6707 H      1090      M_A    0.0000
  11212 H          13.4800   45.0180   29.4372 H      1090      M_A    0.0000
  11213 C          12.2730   47.7330   31.8941 C.3    1091      M_A    0.0000
  11214 C          13.5864   47.7450   31.0990 C.3    1091      M_A    0.0000
  11215 C          13.3451   47.2719   29.6497 C.2    1091      M_A    0.0000
  11216 N          14.4423   47.3063   28.8163 N.3    1091      M_A    0.0000
  11217 O          12.2755   46.8554   29.2129 O.2    1091      M_A    0.0000
  11218 H          11.5569   48.4723   31.5158 H      1091      M_A    0.0000
  11219 H          12.4644   48.0081   32.9400 H      1091      M_A    0.0000
  11220 H          14.3126   47.0514   31.5439 H      1091      M_A    0.0000
  11221 H          15.1700   47.9891   29.0117 H      1091      M_A    0.0000
  11222 H          14.2576   47.1162   27.8380 H      1091      M_A    0.0000
  11223 C          14.2664   49.1941   31.0856 C.3    1092      M_A    0.0000
  11224 C          15.7788   49.1528   31.3469 C.3    1092      M_A    0.0000
  11225 C          16.4992   48.3687   30.2294 C.2    1092      M_A    0.0000
  11226 N          17.8737   48.3226   30.3184 N.3    1092      M_A    0.0000
  11227 O          15.9397   47.7797   29.3082 O.2    1092      M_A    0.0000
  11228 H          14.0262   49.6964   30.1409 H      1092      M_A    0.0000
  11229 H          13.7651   49.7757   31.8709 H      1092      M_A    0.0000
  11230 H          15.9929   48.6325   32.2902 H      1092      M_A    0.0000
  11231 H          18.3488   49.0912   30.7850 H      1092      M_A    0.0000
  11232 H          18.3527   47.9174   29.5223 H      1092      M_A    0.0000
  11233 C          16.4075   50.6202   31.4654 C.3    1093      M_A    0.0000
  11234 C          16.3887   51.1703   32.8987 C.3    1093      M_A    0.0000
  11235 C          17.2799   50.3098   33.8195 C.2    1093      M_A    0.0000
  11236 N          17.3981   50.7476   35.1210 N.3    1093      M_A    0.0000
  11237 O          17.8522   49.2768   33.4821 O.2    1093      M_A    0.0000
  11238 H          17.4183   50.6148   31.0405 H      1093      M_A    0.0000
  11239 H          15.8087   51.2647   30.8078 H      1093      M_A    0.0000
  11240 H          15.3722   51.1323   33.3130 H      1093      M_A    0.0000
  11241 H          17.2950   51.7430   35.3018 H      1093      M_A    0.0000
  11242 H          18.0787   50.2573   35.6899 H      1093      M_A    0.0000
  11243 C          16.8661   52.6969   32.9618 C.3    1094      M_A    0.0000
  11244 C          15.8623   53.6135   33.6756 C.3    1094      M_A    0.0000
  11245 C          16.5992   54.7527   34.4117 C.2    1094      M_A    0.0000
  11246 N          15.7959   55.6835   35.0345 N.3    1094      M_A    0.0000
  11247 O          17.8194   54.8641   34.4962 O.2    1094      M_A    0.0000
  11248 H          17.8623   52.7447   33.4176 H      1094      M_A    0.0000
  11249 H          16.9964   53.0211   31.9206 H      1094      M_A    0.0000
  11250 H          15.3016   53.0532   34.4359 H      1094      M_A    0.0000
  11251 H          14.8666   55.8441   34.6542 H      1094      M_A    0.0000
  11252 H          16.2729   56.4956   35.4093 H      1094      M_A    0.0000
  11253 C          14.7899   54.2336   32.6617 C.3    1095      M_A    0.0000
  11254 C          13.3542   53.7679   32.9434 C.3    1095      M_A    0.0000
  11255 C          12.7640   54.5337   34.1466 C.2    1095      M_A    0.0000
  11256 N          11.4505   54.2502   34.4530 N.3    1095      M_A    0.0000
  11257 O          13.3803   55.3363   34.8426 O.2    1095      M_A    0.0000
  11258 H          14.8763   55.3267   32.6695 H      1095      M_A    0.0000
  11259 H          15.0978   53.9152   31.6567 H      1095      M_A    0.0000
  11260 H          13.3394   52.7015   33.2060 H      1095      M_A    0.0000
  11261 H          10.8401   53.9404   33.7010 H      1095      M_A    0.0000
  11262 H          11.0264   54.8403   35.1595 H      1095      M_A    0.0000
  11263 C          12.4028   53.9524   31.6693 C.3    1096      M_A    0.0000
  11264 C          11.9906   52.6202   31.0268 C.3    1096      M_A    0.0000
  11265 C          10.6167   52.1641   31.5623 C.2    1096      M_A    0.0000
  11266 N          10.1075   51.0111   31.0048 N.3    1096      M_A    0.0000
  11267 O           9.9800   52.7328   32.4453 O.2    1096      M_A    0.0000
  11268 H          11.5338   54.5580   31.9528 H      1096      M_A    0.0000
  11269 H          12.9687   54.5579   30.9487 H      1096      M_A    0.0000
  11270 H          12.7101   51.8304   31.2816 H      1096      M_A    0.0000
  11271 H          10.3840   50.7768   30.0547 H      1096      M_A    0.0000
  11272 H           9.1550   50.7808   31.2636 H      1096      M_A    0.0000
  11273 C          11.9409   52.7145   29.4295 C.3    1097      M_A    0.0000
  11274 C          11.2748   51.4963   28.7741 C.3    1097      M_A    0.0000
  11275 C          10.3791   51.9381   27.5972 C.2    1097      M_A    0.0000
  11276 N           9.7800   50.9221   26.8842 N.3    1097      M_A    0.0000
  11277 O          10.1532   53.1034   27.2819 O.2    1097      M_A    0.0000
  11278 H          11.4560   53.6540   29.1387 H      1097      M_A    0.0000
  11279 H          12.9835   52.7983   29.0944 H      1097      M_A    0.0000
  11280 H          10.6247   50.9792   29.4927 H      1097      M_A    0.0000
  11281 H          10.2468   50.0192   26.8543 H      1097      M_A    0.0000
  11282 H           9.2954   51.2038   26.0397 H      1097      M_A    0.0000
  11283 C          12.3508   50.4285   28.2596 C.3    1098      M_A    0.0000
  11284 C          12.4478   50.3599   26.7288 C.3    1098      M_A    0.0000
  11285 C          13.5963   51.2564   26.2193 C.2    1098      M_A    0.0000
  11286 N          13.8266   51.2232   24.8608 N.3    1098      M_A    0.0000
  11287 O          14.2803   51.9943   26.9236 O.2    1098      M_A    0.0000
  11288 H          13.3211   50.6422   28.7236 H      1098      M_A    0.0000
  11289 H          12.0340   49.4562   28.6600 H      1098      M_A    0.0000
  11290 H          11.5236   50.7328   26.2669 H      1098      M_A    0.0000
  11291 H          13.5836   50.3751   24.3552 H      1098      M_A    0.0000
  11292 H          14.6559   51.7118   24.5432 H      1098      M_A    0.0000
  11293 C          12.6633   48.8617   26.2079 C.3    1099      M_A    0.0000
  11294 C          12.2455   48.6666   24.7434 C.3    1099      M_A    0.0000
  11295 C          13.3492   49.1790   23.7937 C.2    1099      M_A    0.0000
  11296 N          13.1173   48.9931   22.4479 N.3    1099      M_A    0.0000
  11297 O          14.3779   49.7476   24.1500 O.2    1099      M_A    0.0000
  11298 H          13.7050   48.5661   26.3808 H      1099      M_A    0.0000
  11299 H          12.0566   48.2196   26.8604 H      1099      M_A    0.0000
  11300 H          11.3393   49.2459   24.5206 H      1099      M_A    0.0000
  11301 H          12.5302   48.2116   22.1673 H      1099      M_A    0.0000
  11302 H          13.8924   49.2141   21.8333 H      1099      M_A    0.0000
  11303 C          11.9189   47.1350   24.4116 C.3    1100      M_A    0.0000
  11304 C          13.1583   46.3312   23.9929 C.3    1100      M_A    0.0000
  11305 C          14.4409   46.9894   24.5443 C.2    1100      M_A    0.0000
  11306 N          15.6173   46.3174   24.2913 N.3    1100      M_A    0.0000
  11307 O          14.4806   48.0551   25.1537 O.2    1100      M_A    0.0000
  11308 H          11.4055   46.6821   25.2681 H      1100      M_A    0.0000
  11309 H          11.1855   47.1477   23.5941 H      1100      M_A    0.0000
  11310 H          13.2545   46.3130   22.8989 H      1100      M_A    0.0000
  11311 H          15.5758   45.3080   24.1747 H      1100      M_A    0.0000
  11312 H          16.4406   46.6808   24.7575 H      1100      M_A    0.0000
  11313 C          13.0807   44.8097   24.4843 C.3    1101      M_A    0.0000
  11314 C          14.0292   44.4519   25.4027 C.3    1101      M_A    0.0000
  11315 C          15.2597   44.9489   25.0426 C.2    1101      M_A    0.0000
  11316 N          16.1746   44.7372   25.8337 N.3    1101      M_A    0.0000
  11317 O          15.4730   45.4850   24.1129 O.2    1101      M_A    0.0000
  11318 H          12.1759   44.6179   24.7988 H      1101      M_A    0.0000
  11319 H          13.1951   44.2882   23.6643 H      1101      M_A    0.0000
  11320 H          14.1172   43.4782   25.4438 H      1101      M_A    0.0000
  11321 H          15.9661   44.6397   26.7100 H      1101      M_A    0.0000
  11322 H          16.9536   45.1567   25.6533 H      1101      M_A    0.0000
  11323 C          13.6973   44.8990   26.7156 C.3    1102      M_A    0.0000
  11324 C          14.7923   45.2525   27.4554 C.3    1102      M_A    0.0000
  11325 C          14.9712   46.6157   27.4294 C.2    1102      M_A    0.0000
  11326 N          15.8940   47.0473   28.1148 N.3    1102      M_A    0.0000
  11327 O          14.3754   47.3162   26.8364 O.2    1102      M_A    0.0000
  11328 H          13.0477   45.6259   26.6529 H      1102      M_A    0.0000
  11329 H          13.2276   44.1568   27.1467 H      1102      M_A    0.0000
  11330 H          15.6032   44.8525   27.0813 H      1102      M_A    0.0000
  11331 H          16.1377   46.5742   28.8479 H      1102      M_A    0.0000
  11332 H          15.9421   47.9462   28.1860 H      1102      M_A    0.0000
  11333 C          14.6904   44.8084   28.8068 C.3    1103      M_A    0.0000
  11334 C          13.3972   44.6659   29.2293 C.3    1103      M_A    0.0000
  11335 C          13.0698   43.3347   29.3371 C.2    1103      M_A    0.0000
  11336 N          11.9463   43.0935   29.7700 N.3    1103      M_A    0.0000
  11337 O          13.7193   42.5027   29.0488 O.2    1103      M_A    0.0000
  11338 H          15.2032   43.9838   28.9135 H      1103      M_A    0.0000
  11339 H          15.1481   45.4806   29.3508 H      1103      M_A    0.0000
  11340 H          12.7787   45.0588   28.5807 H      1103      M_A    0.0000
  11341 H          11.5651   43.6984   30.3262 H      1103      M_A    0.0000
  11342 H          11.7721   42.2250   29.9454 H      1103      M_A    0.0000
  11343 C          13.1674   45.3184   30.4765 C.3    1104      M_A    0.0000
  11344 C          14.1287   46.2414   30.7849 C.3    1104      M_A    0.0000
  11345 C          14.1187   47.2703   29.8726 C.2    1104      M_A    0.0000
  11346 N          14.9046   48.1878   30.0923 N.3    1104      M_A    0.0000
  11347 O          13.4897   47.3105   28.9781 O.2    1104      M_A    0.0000
  11348 H          12.2721   45.7091   30.4745 H      1104      M_A    0.0000
  11349 H          13.1503   44.6135   31.1548 H      1104      M_A    0.0000
  11350 H          15.0187   45.8364   30.7463 H      1104      M_A    0.0000
  11351 H          15.1418   48.3490   30.9516 H      1104      M_A    0.0000
  11352 H          14.8207   48.9117   29.5591 H      1104      M_A    0.0000
  11353 C          13.9633   46.7661   32.1006 C.3    1105      M_A    0.0000
  11354 C          15.0961   47.3567   32.5897 C.3    1105      M_A    0.0000
  11355 C          15.5117   46.7240   33.7378 C.2    1105      M_A    0.0000
  11356 N          16.5592   47.1373   34.2272 N.3    1105      M_A    0.0000
  11357 O          14.9720   45.9153   34.2398 O.2    1105      M_A    0.0000
  11358 H          13.1997   47.3753   32.1099 H      1105      M_A    0.0000
  11359 H          13.7091   46.0096   32.6668 H      1105      M_A    0.0000
  11360 H          14.9218   48.2899   32.8270 H      1105      M_A    0.0000
  11361 H          17.1694   47.5129   33.6728 H      1105      M_A    0.0000
  11362 H          16.8892   46.6523   34.9136 H      1105      M_A    0.0000
  11363 C          16.1540   47.3575   31.6333 C.3    1106      M_A    0.0000
  11364 C          17.0087   46.2991   31.7769 C.3    1106      M_A    0.0000
  11365 C          17.9322   46.2844   30.7581 C.2    1106      M_A    0.0000
  11366 N          18.7888   45.4072   30.8251 N.3    1106      M_A    0.0000
  11367 O          17.9378   46.9701   29.9055 O.2    1106      M_A    0.0000
  11368 H          15.7744   47.4020   30.7344 H      1106      M_A    0.0000
  11369 H          16.6379   48.1982   31.7615 H      1106      M_A    0.0000
  11370 H          16.5191   45.4533   31.7285 H      1106      M_A    0.0000
  11371 H          19.0161   45.0956   31.6448 H      1106      M_A    0.0000
  11372 H          19.4573   45.4654   30.2209 H      1106      M_A    0.0000
  11373 C          17.6822   46.3227   33.0338 C.3    1107      M_A    0.0000
  11374 C          18.5004   47.4085   33.1845 C.3    1107      M_A    0.0000
  11375 C          19.7128   47.0285   33.7103 C.2    1107      M_A    0.0000
  11376 N          20.5477   47.9209   33.8293 N.3    1107      M_A    0.0000
  11377 O          19.9647   46.0161   34.0405 O.2    1107      M_A    0.0000
  11378 H          17.0236   46.2581   33.7524 H      1107      M_A    0.0000
  11379 H          18.2080   45.4987   33.0777 H      1107      M_A    0.0000
  11380 H          18.1079   48.0499   33.8106 H      1107      M_A    0.0000
  11381 H          20.5032   48.6245   33.2604 H      1107      M_A    0.0000
  11382 H          21.3763   47.6530   34.0684 H      1107      M_A    0.0000
  11383 C          18.7070   48.0971   31.9528 C.3    1108      M_A    0.0000
  11384 C          17.8805   47.6665   30.9515 C.3    1108      M_A    0.0000
  11385 C          17.1032   46.6186   31.3859 C.2    1108      M_A    0.0000
  11386 N          16.2784   46.1947   30.5812 N.3    1108      M_A    0.0000
  11387 O          17.1867   46.1386   32.3657 O.2    1108      M_A    0.0000
  11388 H          18.6272   49.0587   32.1051 H      1108      M_A    0.0000
  11389 H          19.6410   47.9418   31.7060 H      1108      M_A    0.0000
  11390 H          18.4032   47.3367   30.1928 H      1108      M_A    0.0000
  11391 H          15.9548   46.7693   29.9601 H      1108      M_A    0.0000
  11392 H          15.6953   45.5845   30.9023 H      1108      M_A    0.0000
  11393 C          17.0441   48.7126   30.4617 C.3    1109      M_A    0.0000
  11394 C          17.4725   49.2294   29.2699 C.3    1109      M_A    0.0000
  11395 C          18.3712   50.2483   29.4822 C.2    1109      M_A    0.0000
  11396 N          18.8672   50.7430   28.4737 N.3    1109      M_A    0.0000
  11397 O          18.6465   50.6490   30.4624 O.2    1109      M_A    0.0000
  11398 H          16.1232   48.3906   30.4112 H      1109      M_A    0.0000
  11399 H          17.0467   49.4092   31.1489 H      1109      M_A    0.0000
  11400 H          16.7221   49.6120   28.7719 H      1109      M_A    0.0000
  11401 H          18.9413   50.2223   27.7360 H      1109      M_A    0.0000
  11402 H          19.5367   51.3323   28.6149 H      1109      M_A    0.0000
  11403 C          18.0645   48.2340   28.4376 C.3    1110      M_A    0.0000
  11404 C          17.1452   47.4084   27.8508 C.3    1110      M_A    0.0000
  11405 C          17.7173   46.7115   26.8126 C.2    1110      M_A    0.0000
  11406 N          16.9925   45.8927   26.2542 N.3    1110      M_A    0.0000
  11407 O          18.7397   46.8529   26.4492 O.2    1110      M_A    0.0000
  11408 H          18.6406   48.6675   27.7785 H      1110      M_A    0.0000
  11409 H          18.6608   47.7149   29.0141 H      1110      M_A    0.0000
  11410 H          16.4087   47.9291   27.4714 H      1110      M_A    0.0000
  11411 H          16.3247   45.5160   26.7367 H      1110      M_A    0.0000
  11412 H          17.3980   45.3586   25.6494 H      1110      M_A    0.0000
  11413 C          16.5749   46.4940   28.7849 C.3    1111      M_A    0.0000
  11414 C          15.5047   47.0135   29.4601 C.3    1111      M_A    0.0000
  11415 C          15.8913   47.4668   30.6995 C.2    1111      M_A    0.0000
  11416 N          15.0161   48.0108   31.3671 N.3    1111      M_A    0.0000
  11417 O          16.8936   47.3561   31.1242 O.2    1111      M_A    0.0000
  11418 H          16.3484   45.6631   28.3237 H      1111      M_A    0.0000
  11419 H          17.2885   46.2650   29.4140 H      1111      M_A    0.0000
  11420 H          14.8254   46.3251   29.6088 H      1111      M_A    0.0000
  11421 H          14.3383   48.4211   30.9278 H      1111      M_A    0.0000
  11422 H          15.2939   48.4059   32.1301 H      1111      M_A    0.0000
  11423 C          14.8787   48.0713   28.7369 C.3    1112      M_A    0.0000
  11424 C          15.3276   48.1809   27.4494 C.3    1112      M_A    0.0000
  11425 C          15.2058   46.9787   26.7930 C.2    1112      M_A    0.0000
  11426 N          15.5242   46.9819   25.6072 N.3    1112      M_A    0.0000
  11427 O          14.8748   46.0426   27.2530 O.2    1112      M_A    0.0000
  11428 H          13.9092   47.9588   28.7781 H      1112      M_A    0.0000
  11429 H          15.0740   48.8931   29.2306 H      1112      M_A    0.0000
  11430 H          16.2772   48.4168   27.4358 H      1112      M_A    0.0000
  11431 H          15.4433   47.7578   25.1465 H      1112      M_A    0.0000
  11432 H          15.3399   46.2254   25.1499 H      1112      M_A    0.0000
  11433 C          14.6330   49.1945   26.7256 C.3    1113      M_A    0.0000
  11434 C          13.8124   49.9520   27.5156 C.3    1113      M_A    0.0000
  11435 C          12.9615   49.1477   28.2367 C.2    1113      M_A    0.0000
  11436 N          12.2210   49.7255   29.0275 N.3    1113      M_A    0.0000
  11437 O          12.8893   48.0605   28.1366 O.2    1113      M_A    0.0000
  11438 H          15.2793   49.7416   26.2385 H      1113      M_A    0.0000
  11439 H          14.1065   48.7312   26.0433 H      1113      M_A    0.0000
  11440 H          13.2526   50.5378   26.9670 H      1113      M_A    0.0000
  11441 H          12.5017   50.5129   29.3765 H      1113      M_A    0.0000
  11442 H          11.7437   49.1925   29.5784 H      1113      M_A    0.0000
  11443 C          14.5496   50.7885   28.4047 C.3    1114      M_A    0.0000
  11444 C          15.5802   50.1369   29.0249 C.3    1114      M_A    0.0000
  11445 C          15.3726   48.7777   29.0036 C.2    1114      M_A    0.0000
  11446 N          16.2719   48.0916   29.4813 N.3    1114      M_A    0.0000
  11447 O          14.4737   48.2854   28.6202 O.2    1114      M_A    0.0000
  11448 H          14.8554   51.5805   27.9214 H      1114      M_A    0.0000
  11449 H          13.9093   51.1117   29.0702 H      1114      M_A    0.0000
  11450 H          15.6369   50.4007   29.9654 H      1114      M_A    0.0000
  11451 H          17.1160   48.4196   29.4582 H      1114      M_A    0.0000
  11452 H          16.1871   47.1998   29.3674 H      1114      M_A    0.0000
  11453 C          16.8397   50.4386   28.4278 C.3    1115      M_A    0.0000
  11454 C          17.4404   49.3482   27.8610 C.3    1115      M_A    0.0000
  11455 C          16.9902   49.1648   26.5747 C.2    1115      M_A    0.0000
  11456 N          17.5135   48.2458   25.9507 N.3    1115      M_A    0.0000
  11457 O          16.2029   49.7539   26.0948 O.2    1115      M_A    0.0000
  11458 H          16.7254   51.1675   27.7876 H      1115      M_A    0.0000
  11459 H          17.4027   50.7967   29.1434 H      1115      M_A    0.0000
  11460 H          17.2170   48.5357   28.3585 H      1115      M_A    0.0000
  11461 H          18.3598   48.0092   26.1706 H      1115      M_A    0.0000
  11462 H          17.3001   48.1955   25.0747 H      1115      M_A    0.0000
  11463 C          18.8620   49.4616   27.8596 C.3    1116      M_A    0.0000
  11464 C          19.3418   50.1884   26.8047 C.3    1116      M_A    0.0000
  11465 C          19.4492   51.5166   27.1443 C.2    1116      M_A    0.0000
  11466 N          19.9303   52.2511   26.2860 N.3    1116      M_A    0.0000
  11467 O          19.1217   51.9506   28.0939 O.2    1116      M_A    0.0000
  11468 H          19.1563   49.8240   28.7177 H      1116      M_A    0.0000
  11469 H          19.2093   48.5476   27.8218 H      1116      M_A    0.0000
  11470 H          18.7267   50.1384   26.0452 H      1116      M_A    0.0000
  11471 H          20.5103   51.8889   25.6918 H      1116      M_A    0.0000
  11472 H          20.1035   53.0979   26.5471 H      1116      M_A    0.0000
  11473 C          20.6056   49.7055   26.3536 C.3    1117      M_A    0.0000
  11474 C          21.6641   50.3672   26.9128 C.3    1117      M_A    0.0000
  11475 C          22.7848   49.5703   26.9121 C.2    1117      M_A    0.0000
  11476 N          23.8121   50.0914   27.3374 N.3    1117      M_A    0.0000
  11477 O          22.8126   48.5257   26.5876 O.2    1117      M_A    0.0000
  11478 H          20.6543   48.7419   26.5063 H      1117      M_A    0.0000
  11479 H          20.6125   49.8233   25.3823 H      1117      M_A    0.0000
  11480 H          21.4751   50.5905   27.8466 H      1117      M_A    0.0000
  11481 H          23.8973   50.9900   27.2604 H      1117      M_A    0.0000
  11482 H          24.5681   49.6087   27.2340 H      1117      M_A    0.0000
  11483 C          21.9462   51.5913   26.2376 C.3    1118      M_A    0.0000
  11484 C          22.2569   52.6154   27.0896 C.3    1118      M_A    0.0000
  11485 C          21.1870   52.9063   27.9030 C.2    1118      M_A    0.0000
  11486 N          21.3799   53.7729   28.7513 N.3    1118      M_A    0.0000
  11487 O          20.1979   52.4443   27.8292 O.2    1118      M_A    0.0000
  11488 H          22.6493   51.4390   25.5767 H      1118      M_A    0.0000
  11489 H          21.1420   51.8134   25.7265 H      1118      M_A    0.0000
  11490 H          22.4614   53.4299   26.5874 H      1118      M_A    0.0000
  11491 H          22.2245   53.8883   29.0580 H      1118      M_A    0.0000
  11492 H          20.7176   53.8850   29.3547 H      1118      M_A    0.0000
  11493 C          23.3996   52.3175   27.8892 C.3    1119      M_A    0.0000
  11494 C          23.2444   52.6722   29.2011 C.3    1119      M_A    0.0000
  11495 C          21.9249   52.5707   29.5745 C.2    1119      M_A    0.0000
  11496 N          21.6830   52.8077   30.7547 N.3    1119      M_A    0.0000
  11497 O          21.0989   52.3218   28.9013 O.2    1119      M_A    0.0000
  11498 H          23.6237   51.3719   27.7896 H      1119      M_A    0.0000
  11499 H          24.1459   52.8124   27.4947 H      1119      M_A    0.0000
  11500 H          23.5073   53.6047   29.3382 H      1119      M_A    0.0000
  11501 H          22.3371   52.6547   31.3627 H      1119      M_A    0.0000
  11502 H          20.8390   52.6336   31.0245 H      1119      M_A    0.0000
  11503 C          24.0503   51.8773   30.0686 C.3    1120      M_A    0.0000
  11504 C          24.3506   52.5039   31.2469 C.3    1120      M_A    0.0000
  11505 C          25.5053   53.2397   31.1203 C.2    1120      M_A    0.0000
  11506 N          25.8332   53.8945   32.1059 N.3    1120      M_A    0.0000
  11507 O          26.1430   53.2599   30.2313 O.2    1120      M_A    0.0000
  11508 H          23.6133   51.0156   30.2132 H      1120      M_A    0.0000
  11509 H          24.8720   51.6810   29.5750 H      1120      M_A    0.0000
  11510 H          24.5088   51.8469   31.9546 H      1120      M_A    0.0000
  11511 H          25.1804   54.1726   32.6691 H      1120      M_A    0.0000
  11512 H          26.5257   54.4616   31.9869 H      1120      M_A    0.0000
  11513 C          23.2899   53.3488   31.6883 C.3    1121      M_A    0.0000
  11514 C          23.5368   53.9319   32.9008 C.3    1121      M_A    0.0000
  11515 C          23.8478   55.2618   32.7412 C.2    1121      M_A    0.0000
  11516 N          24.0277   55.8972   33.7763 N.3    1121      M_A    0.0000
  11517 O          23.9639   55.7686   31.7783 O.2    1121      M_A    0.0000
  11518 H          23.0973   54.0109   30.9963 H      1121      M_A    0.0000
  11519 H          22.4944   52.7820   31.7452 H      1121      M_A    0.0000
  11520 H          24.3063   53.5105   33.3342 H      1121      M_A    0.0000
  11521 H          23.6004   55.6205   34.5257 H      1121      M_A    0.0000
  11522 H          24.1212   56.7899   33.6770 H      1121      M_A    0.0000
  11523 C          22.4305   53.8021   33.7915 C.3    1122      M_A    0.0000
  11524 C          22.7534   53.1690   34.9603 C.3    1122      M_A    0.0000
  11525 C          21.6265   52.9537   35.7184 C.2    1122      M_A    0.0000
  11526 N          21.7960   52.3340   36.7647 N.3    1122      M_A    0.0000
  11527 O          20.6227   53.3091   35.4666 O.2    1122      M_A    0.0000
  11528 H          22.0394   54.6834   33.9485 H      1122      M_A    0.0000
  11529 H          21.7504   53.2894   33.3099 H      1122      M_A    0.0000
  11530 H          23.3547   53.7240   35.4968 H      1122      M_A    0.0000
  11531 H          22.4864   51.7488   36.8062 H      1122      M_A    0.0000
  11532 H          21.0446   52.0963   37.2056 H      1122      M_A    0.0000
  11533 C          23.4201   51.9294   34.7302 C.3    1123      M_A    0.0000
  11534 C          24.2053   51.5390   35.7800 C.3    1123      M_A    0.0000
  11535 C          23.4373   51.3147   36.8984 C.2    1123      M_A    0.0000
  11536 N          24.0380   50.8988   37.8852 N.3    1123      M_A    0.0000
  11537 O          22.3612   51.4998   36.9688 O.2    1123      M_A    0.0000
  11538 H          22.7604   51.2489   34.4936 H      1123      M_A    0.0000
  11539 H          23.9696   52.0587   33.9310 H      1123      M_A    0.0000
  11540 H          24.8446   52.2428   36.0110 H      1123      M_A    0.0000
  11541 H          24.7932   50.4164   37.7523 H      1123      M_A    0.0000
  11542 H          23.5209   50.6466   38.5813 H      1123      M_A    0.0000
  11543 C          24.9615   50.3688   35.4755 C.3    1124      M_A    0.0000
  11544 C          25.7064   49.9207   36.5317 C.3    1124      M_A    0.0000
  11545 C          24.8933   49.6060   37.5951 C.2    1124      M_A    0.0000
  11546 N          25.4572   49.1336   38.5783 N.3    1124      M_A    0.0000
  11547 O          23.8114   49.7665   37.6277 O.2    1124      M_A    0.0000
  11548 H          24.3613   49.6788   35.1320 H      1124      M_A    0.0000
  11549 H          25.5481   50.6085   34.7300 H      1124      M_A    0.0000
  11550 H          26.3196   50.6182   36.8399 H      1124      M_A    0.0000
  11551 H          26.2277   48.6751   38.4481 H      1124      M_A    0.0000
  11552 H          24.9145   48.8246   39.2305 H      1124      M_A    0.0000
  11553 C          26.5000   48.7880   36.1837 C.3    1125      M_A    0.0000
  11554 C          26.8558   48.0290   37.2646 C.3    1125      M_A    0.0000
  11555 C          26.6801   46.6924   36.9932 C.2    1125      M_A    0.0000
  11556 N          27.0293   45.9163   37.8783 N.3    1125      M_A    0.0000
  11557 O          26.2408   46.2903   36.0752 O.2    1125      M_A    0.0000
  11558 H          26.0312   48.2632   35.5062 H      1125      M_A    0.0000
  11559 H          27.3001   49.1395   35.7436 H      1125      M_A    0.0000
  11560 H          26.2886   48.2394   38.0337 H      1125      M_A    0.0000
  11561 H          27.6898   46.1797   38.4396 H      1125      M_A    0.0000
  11562 H          27.0184   45.0406   37.6583 H      1125      M_A    0.0000
  11563 C          28.2053   48.2638   37.6617 C.3    1126      M_A    0.0000
  11564 C          28.5251   47.6730   38.8533 C.3    1126      M_A    0.0000
  11565 C          29.8326   47.2473   38.8440 C.2    1126      M_A    0.0000
  11566 N          30.2428   46.7558   39.8918 N.3    1126      M_A    0.0000
  11567 O          30.5031   47.2966   37.9807 O.2    1126      M_A    0.0000
  11568 H          28.8049   47.9854   36.9426 H      1126      M_A    0.0000
  11569 H          28.3046   49.2347   37.7322 H      1126      M_A    0.0000
  11570 H          27.9699   46.8815   39.0041 H      1126      M_A    0.0000
  11571 H          29.8624   47.0281   40.6676 H      1126      M_A    0.0000
  11572 H          31.1278   46.5794   39.9218 H      1126      M_A    0.0000
  11573 C          28.3146   48.5498   39.9582 C.3    1127      M_A    0.0000
  11574 C          28.1395   47.8886   41.1428 C.3    1127      M_A    0.0000
  11575 C          29.3533   47.6377   41.7381 C.2    1127      M_A    0.0000
  11576 N          29.3073   47.1006   42.8413 N.3    1127      M_A    0.0000
  11577 O          30.3285   47.8591   41.2940 O.2    1127      M_A    0.0000
  11578 H          29.0489   49.1925   40.0028 H      1127      M_A    0.0000
  11579 H          27.5149   49.0716   39.7447 H      1127      M_A    0.0000
  11580 H          27.7125   47.0212   40.9921 H      1127      M_A    0.0000
  11581 H          28.5740   47.2426   43.3540 H      1127      M_A    0.0000
  11582 H          30.0943   47.0374   43.2796 H      1127      M_A    0.0000
  11583 C          27.3057   48.6159   42.0426 C.3    1128      M_A    0.0000
  11584 C          26.1363   47.9686   42.3336 C.3    1128      M_A    0.0000
  11585 C          26.3429   47.0123   43.2999 C.2    1128      M_A    0.0000
  11586 N          25.3420   46.4118   43.6810 N.3    1128      M_A    0.0000
  11587 O          27.3168   46.7452   43.7213 O.2    1128      M_A    0.0000
  11588 H          27.8144   48.8325   42.8480 H      1128      M_A    0.0000
  11589 H          27.1154   49.4717   41.6081 H      1128      M_A    0.0000
  11590 H          25.7950   47.5041   41.5429 H      1128      M_A    0.0000
  11591 H          24.5446   46.8388   43.6320 H      1128      M_A    0.0000
  11592 H          25.4591   45.8656   44.3905 H      1128      M_A    0.0000
  11593 C          25.1184   48.8707   42.7623 C.3    1129      M_A    0.0000
  11594 C          24.1080   49.0127   41.8511 C.3    1129      M_A    0.0000
  11595 C          23.2240   47.9636   41.9451 C.2    1129      M_A    0.0000
  11596 N          22.2417   48.0242   41.2108 N.3    1129      M_A    0.0000
  11597 O          23.3488   47.0935   42.5968 O.2    1129      M_A    0.0000
  11598 H          24.7860   48.5882   43.6363 H      1129      M_A    0.0000
  11599 H          25.5599   49.7314   42.9092 H      1129      M_A    0.0000
  11600 H          24.4638   49.0033   40.9396 H      1129      M_A    0.0000
  11601 H          21.9450   48.8435   40.9631 H      1129      M_A    0.0000
  11602 H          21.6083   47.3961   41.3510 H      1129      M_A    0.0000
  11603 C          23.4088   50.2447   42.0159 C.3    1130      M_A    0.0000
  11604 C          22.3490   50.1499   42.8756 C.3    1130      M_A    0.0000
  11605 C          22.6020   49.2136   43.8504 C.2    1130      M_A    0.0000
  11606 N          21.7371   49.0930   44.7136 N.3    1130      M_A    0.0000
  11607 O          23.4881   48.5729   43.8912 O.2    1130      M_A    0.0000
  11608 H          24.0402   50.9384   42.2884 H      1130      M_A    0.0000
  11609 H          23.0955   50.5025   41.1256 H      1130      M_A    0.0000
  11610 H          21.5463   49.8548   42.4000 H      1130      M_A    0.0000
  11611 H          21.2203   49.8127   44.9025 H      1130      M_A    0.0000
  11612 H          21.9515   48.5617   45.4116 H      1130      M_A    0.0000
  11613 C          22.0399   51.4026   43.4831 C.3    1131      M_A    0.0000
  11614 C          21.9162   51.3241   44.8431 C.3    1131      M_A    0.0000
  11615 C          22.4007   50.1217   45.3020 C.2    1131      M_A    0.0000
  11616 N          22.3940   49.9723   46.5207 N.3    1131      M_A    0.0000
  11617 O          22.7596   49.3057   44.6674 O.2    1131      M_A    0.0000
  11618 H          22.7070   52.0635   43.2138 H      1131      M_A    0.0000
  11619 H          21.1955   51.6979   43.0867 H      1131      M_A    0.0000
  11620 H          20.9746   51.3695   45.1055 H      1131      M_A    0.0000
  11621 H          22.4550   50.7114   47.0409 H      1131      M_A    0.0000
  11622 H          22.8125   49.2331   46.8272 H      1131      M_A    0.0000
  11623 C          22.5879   52.3948   45.5036 C.3    1132      M_A    0.0000
  11624 C          21.7931   53.4918   45.6933 C.3    1132      M_A    0.0000
  11625 C          22.3610   54.3451   46.6101 C.2    1132      M_A    0.0000
  11626 N          21.7571   55.3955   46.8090 N.3    1132      M_A    0.0000
  11627 O          23.2772   54.1428   47.1730 O.2    1132      M_A    0.0000
  11628 H          22.9665   52.0676   46.3426 H      1132      M_A    0.0000
  11629 H          23.3517   52.6285   44.9385 H      1132      M_A    0.0000
  11630 H          20.9225   53.2271   46.0532 H      1132      M_A    0.0000
  11631 H          21.2487   55.7284   46.1371 H      1132      M_A    0.0000
  11632 H          22.1844   56.0018   47.3239 H      1132      M_A    0.0000
  11633 C          21.5483   54.1915   44.4750 C.3    1133      M_A    0.0000
  11634 C          21.9017   55.5117   44.5334 C.3    1133      M_A    0.0000
  11635 C          21.0683   56.1959   45.3868 C.2    1133      M_A    0.0000
  11636 N          21.3369   57.3813   45.5608 N.3    1133      M_A    0.0000
  11637 O          20.1940   55.7689   45.8875 O.2    1133      M_A    0.0000
  11638 H          21.9944   53.7253   43.7415 H      1133      M_A    0.0000
  11639 H          20.5891   54.1092   44.3004 H      1133      M_A    0.0000
  11640 H          21.8127   55.9303   43.6535 H      1133      M_A    0.0000
  11641 H          22.2000   57.6405   45.4688 H      1133      M_A    0.0000
  11642 H          20.8607   57.8009   46.2031 H      1133      M_A    0.0000
  11643 C          23.2561   55.6847   44.9453 C.3    1134      M_A    0.0000
  11644 C          23.7432   56.9347   44.6781 C.2    1134      M_A    0.0000
  11645 C          23.5343   57.7719   45.7488 C.2    1134      M_A    0.0000
  11646 N          23.9905   58.9064   45.6378 N.3    1134      M_A    0.0000
  11647 O          22.9840   57.5057   46.6563 O.2    1134      M_A    0.0000
  11648 H          23.3359   55.4553   45.8915 H      1134      M_A    0.0000
  11649 H          23.7769   55.0121   44.4619 H      1134      M_A    0.0000
  11650 H          23.2763   57.3292   43.9140 H      1134      M_A    0.0000
  11651 H          24.7159   59.0240   45.1079 H      1134      M_A    0.0000
  11652 H          23.9518   59.4188   46.3804 H      1134      M_A    0.0000
  11653 C          71.5314   15.6735   47.1756 C.2    1135      M_A    0.0000
  11654 C          70.5563   14.5142   46.9251 C.3    1135      M_A    0.0000
  11655 C          71.0560   13.2284   47.6176 C.2    1135      M_A    0.0000
  11656 N          70.2253   12.1329   47.5215 N.3    1135      M_A    0.0000
  11657 O          72.1266   13.1167   48.2091 O.2    1135      M_A    0.0000
  11658 H          71.1694   16.3535   47.9558 H      1135      M_A    0.0000
  11659 H          71.6309   16.2836   46.2678 H      1135      M_A    0.0000
  11660 H          70.4890   14.2922   45.8515 H      1135      M_A    0.0000
  11661 H          69.2271   12.2973   47.4179 H      1135      M_A    0.0000
  11662 H          70.4912   11.3290   48.0785 H      1135      M_A    0.0000
  11663 C          69.0758   14.8559   47.4290 C.3    1136      M_A    0.0000
  11664 C          69.0153   15.2198   48.9194 C.3    1136      M_A    0.0000
  11665 C          70.4340   15.4740   49.4718 C.2    1136      M_A    0.0000
  11666 N          70.5026   15.8778   50.7877 N.3    1136      M_A    0.0000
  11667 O          71.4752   15.3189   48.8391 O.2    1136      M_A    0.0000
  11668 H          68.6526   15.6448   46.7959 H      1136      M_A    0.0000
  11669 H          68.4714   13.9594   47.2363 H      1136      M_A    0.0000
  11670 H          68.5903   14.3911   49.5016 H      1136      M_A    0.0000
  11671 H          69.7103   16.3845   51.1744 H      1136      M_A    0.0000
  11672 H          71.4190   16.1642   51.1127 H      1136      M_A    0.0000
  11673 C          68.0962   16.5030   49.1868 C.3    1137      M_A    0.0000
  11674 C          68.3132   17.1212   50.5754 C.3    1137      M_A    0.0000
  11675 C          69.7885   16.9786   51.0060 C.2    1137      M_A    0.0000
  11676 N          70.1215   17.5600   52.2104 N.3    1137      M_A    0.0000
  11677 O          70.6523   16.3759   50.3742 O.2    1137      M_A    0.0000
  11678 H          68.2528   17.2324   48.3833 H      1137      M_A    0.0000
  11679 H          67.0569   16.1627   49.0852 H      1137      M_A    0.0000
  11680 H          67.7093   16.5978   51.3290 H      1137      M_A    0.0000
  11681 H          69.5786   18.3619   52.5206 H      1137      M_A    0.0000
  11682 H          71.1102   17.5755   52.4329 H      1137      M_A    0.0000
  11683 C          67.8869   18.6636   50.6187 C.3    1138      M_A    0.0000
  11684 C          66.4354   18.8754   51.0722 C.3    1138      M_A    0.0000
  11685 C          65.9006   20.2289   50.5579 C.2    1138      M_A    0.0000
  11686 N          64.5801   20.5008   50.8441 N.3    1138      M_A    0.0000
  11687 O          66.5648   21.0645   49.9503 O.2    1138      M_A    0.0000
  11688 H          68.5977   19.2167   51.2442 H      1138      M_A    0.0000
  11689 H          68.0219   19.0480   49.5988 H      1138      M_A    0.0000
  11690 H          66.3744   18.9045   52.1685 H      1138      M_A    0.0000
  11691 H          63.9443   19.7156   50.9590 H      1138      M_A    0.0000
  11692 H          64.1953   21.3275   50.4017 H      1138      M_A    0.0000
  11693 C          65.4741   17.6946   50.5782 C.3    1139      M_A    0.0000
  11694 C          64.1631   17.6120   51.3732 C.3    1139      M_A    0.0000
  11695 C          63.6603   19.0258   51.7346 C.2    1139      M_A    0.0000
  11696 N          62.4500   19.0831   52.3915 N.3    1139      M_A    0.0000
  11697 O          64.2647   20.0697   51.5033 O.2    1139      M_A    0.0000
  11698 H          65.2958   17.8013   49.5016 H      1139      M_A    0.0000
  11699 H          66.0450   16.7639   50.6974 H      1139      M_A    0.0000
  11700 H          64.3195   17.0777   52.3200 H      1139      M_A    0.0000
  11701 H          61.7818   18.3340   52.2290 H      1139      M_A    0.0000
  11702 H          62.0611   20.0106   52.5171 H      1139      M_A    0.0000
  11703 C          63.0235   16.8246   50.5708 C.3    1140      M_A    0.0000
  11704 C          62.0354   16.0923   51.4899 C.3    1140      M_A    0.0000
  11705 C          60.7846   16.9611   51.7403 C.2    1140      M_A    0.0000
  11706 N          59.7912   16.3794   52.4981 N.3    1140      M_A    0.0000
  11707 O          60.6344   18.1127   51.3404 O.2    1140      M_A    0.0000
  11708 H          62.5152   17.5194   49.8916 H      1140      M_A    0.0000
  11709 H          63.5442   16.1026   49.9275 H      1140      M_A    0.0000
  11710 H          62.4913   15.8998   52.4705 H      1140      M_A    0.0000
  11711 H          59.7090   15.3660   52.4821 H      1140      M_A    0.0000
  11712 H          58.9224   16.8982   52.5576 H      1140      M_A    0.0000
  11713 C          61.5947   14.6754   50.8893 C.3    1141      M_A    0.0000
  11714 C          62.2801   13.4880   51.5804 C.3    1141      M_A    0.0000
  11715 C          61.5929   12.1632   51.1866 C.2    1141      M_A    0.0000
  11716 N          62.1656   11.0161   51.6923 N.3    1141      M_A    0.0000
  11717 O          60.5835   12.0716   50.4929 O.2    1141      M_A    0.0000
  11718 H          60.5016   14.5944   50.9214 H      1141      M_A    0.0000
  11719 H          61.8632   14.6964   49.8245 H      1141      M_A    0.0000
  11720 H          62.1977   13.5774   52.6721 H      1141      M_A    0.0000
  11721 H          63.1617   11.0289   51.8964 H      1141      M_A    0.0000
  11722 H          61.7929   10.1440   51.3348 H      1141      M_A    0.0000
  11723 C          63.8402   13.4093   51.2308 C.3    1142      M_A    0.0000
  11724 C          64.1770   12.3016   50.2223 C.3    1142      M_A    0.0000
  11725 C          63.0658   12.1841   49.1575 C.2    1142      M_A    0.0000
  11726 N          63.2902   11.2663   48.1541 N.3    1142      M_A    0.0000
  11727 O          62.0146   12.8194   49.1623 O.2    1142      M_A    0.0000
  11728 H          64.1835   14.3934   50.8900 H      1142      M_A    0.0000
  11729 H          64.3587   13.2228   52.1809 H      1142      M_A    0.0000
  11730 H          64.2397   11.3276   50.7262 H      1142      M_A    0.0000
  11731 H          64.2535   11.0546   47.9064 H      1142      M_A    0.0000
  11732 H          62.6237   11.2776   47.3905 H      1142      M_A    0.0000
  11733 C          65.5856   12.5519   49.5043 C.3    1143      M_A    0.0000
  11734 C          66.1802   11.2798   48.8833 C.3    1143      M_A    0.0000
  11735 C          65.6273   10.0239   49.5901 C.2    1143      M_A    0.0000
  11736 N          66.0371    8.8141   49.0725 N.3    1143      M_A    0.0000
  11737 O          64.8880   10.0349   50.5708 O.2    1143      M_A    0.0000
  11738 H          65.4768   13.3566   48.7675 H      1143      M_A    0.0000
  11739 H          66.2597   12.9425   50.2785 H      1143      M_A    0.0000
  11740 H          67.2711   11.2625   49.0101 H      1143      M_A    0.0000
  11741 H          66.2812    8.7740   48.0861 H      1143      M_A    0.0000
  11742 H          65.5787    7.9945   49.4540 H      1143      M_A    0.0000
  11743 C          65.8872   11.1856   47.3123 C.3    1144      M_A    0.0000
  11744 C          67.0787   10.6461   46.5081 C.3    1144      M_A    0.0000
  11745 C          67.8023    9.5328   47.2951 C.2    1144      M_A    0.0000
  11746 N          68.8512    8.9210   46.6431 N.3    1144      M_A    0.0000
  11747 O          67.5268    9.1861   48.4407 O.2    1144      M_A    0.0000
  11748 H          64.9795   10.5925   47.1497 H      1144      M_A    0.0000
  11749 H          65.6430   12.2048   46.9840 H      1144      M_A    0.0000
  11750 H          67.8155   11.4411   46.3304 H      1144      M_A    0.0000
  11751 H          68.8305    8.8914   45.6269 H      1144      M_A    0.0000
  11752 H          69.2443    8.1100   47.1067 H      1144      M_A    0.0000
  11753 C          66.6324   10.0888   45.0754 C.3    1145      M_A    0.0000
  11754 C          67.2146   10.8963   43.9063 C.3    1145      M_A    0.0000
  11755 C          67.6438    9.9554   42.7605 C.2    1145      M_A    0.0000
  11756 N          68.1195   10.5721   41.6234 N.3    1145      M_A    0.0000
  11757 O          67.6130    8.7285   42.8066 O.2    1145      M_A    0.0000
  11758 H          66.8875    9.0246   45.0070 H      1145      M_A    0.0000
  11759 H          65.5353   10.1367   45.0555 H      1145      M_A    0.0000
  11760 H          68.1133   11.4417   44.2243 H      1145      M_A    0.0000
  11761 H          67.7841   11.5084   41.4113 H      1145      M_A    0.0000
  11762 H          68.2827    9.9643   40.8289 H      1145      M_A    0.0000
  11763 C          66.1769   11.9814   43.3511 C.3    1146      M_A    0.0000
  11764 C          65.9542   11.8822   41.8352 C.3    1146      M_A    0.0000
  11765 C          64.5328   12.3571   41.4655 C.2    1146      M_A    0.0000
  11766 N          64.2383   12.3794   40.1193 N.3    1146      M_A    0.0000
  11767 O          63.6658   12.6819   42.2725 O.2    1146      M_A    0.0000
  11768 H          65.2373   11.9011   43.9105 H      1146      M_A    0.0000
  11769 H          66.5951   12.9645   43.6059 H      1146      M_A    0.0000
  11770 H          66.0390   10.8395   41.5005 H      1146      M_A    0.0000
  11771 H          65.0042   12.5157   39.4644 H      1146      M_A    0.0000
  11772 H          63.3541   12.8073   39.8696 H      1146      M_A    0.0000
  11773 C          67.0352   12.7299   41.0133 C.3    1147      M_A    0.0000
  11774 C          66.4521   13.3953   39.7584 C.3    1147      M_A    0.0000
  11775 C          65.3702   12.4963   39.1231 C.2    1147      M_A    0.0000
  11776 N          64.7227   13.0204   38.0251 N.3    1147      M_A    0.0000
  11777 O          65.0770   11.3672   39.5074 O.2    1147      M_A    0.0000
  11778 H          67.5071   13.4586   41.6831 H      1147      M_A    0.0000
  11779 H          67.8280   12.0244   40.7305 H      1147      M_A    0.0000
  11780 H          67.2333   13.5385   38.9997 H      1147      M_A    0.0000
  11781 H          64.6478   14.0318   37.9519 H      1147      M_A    0.0000
  11782 H          63.9305   12.4869   37.6856 H      1147      M_A    0.0000
  11783 C          65.8343   14.8375   40.0762 C.3    1148      M_A    0.0000
  11784 C          64.7276   14.7983   41.1397 C.3    1148      M_A    0.0000
  11785 C          65.2130   14.0466   42.3974 C.2    1148      M_A    0.0000
  11786 N          64.3269   14.0061   43.4522 N.3    1148      M_A    0.0000
  11787 O          66.2962   13.4776   42.5045 O.2    1148      M_A    0.0000
  11788 H          66.6440   15.5241   40.3508 H      1148      M_A    0.0000
  11789 H          65.4301   15.2142   39.1270 H      1148      M_A    0.0000
  11790 H          63.8500   14.2558   40.7630 H      1148      M_A    0.0000
  11791 H          63.6567   14.7654   43.5432 H      1148      M_A    0.0000
  11792 H          64.6904   13.6236   44.3176 H      1148      M_A    0.0000
  11793 C          64.2348   16.2659   41.5471 C.3    1149      M_A    0.0000
  11794 C          64.8972   17.3759   40.7186 C.3    1149      M_A    0.0000
  11795 C          63.8299   18.3318   40.1444 C.2    1149      M_A    0.0000
  11796 N          64.3101   19.4128   39.4371 N.3    1149      M_A    0.0000
  11797 O          62.6159   18.1801   40.2531 O.2    1149      M_A    0.0000
  11798 H          63.1406   16.3077   41.4898 H      1149      M_A    0.0000
  11799 H          64.4849   16.3898   42.6093 H      1149      M_A    0.0000
  11800 H          65.4359   16.9484   39.8622 H      1149      M_A    0.0000
  11801 H          65.2328   19.7680   39.6746 H      1149      M_A    0.0000
  11802 H          63.6196   20.1045   39.1684 H      1149      M_A    0.0000
  11803 C          65.9613   18.2103   41.5754 C.3    1150      M_A    0.0000
  11804 C          66.5289   17.4221   42.7645 C.3    1150      M_A    0.0000
  11805 C          67.9170   16.8438   42.4163 C.2    1150      M_A    0.0000
  11806 N          68.5599   16.1718   43.4335 N.3    1150      M_A    0.0000
  11807 O          68.4569   16.9204   41.3158 O.2    1150      M_A    0.0000
  11808 H          66.7522   18.5766   40.9101 H      1150      M_A    0.0000
  11809 H          65.4332   19.1038   41.9346 H      1150      M_A    0.0000
  11810 H          65.8801   16.5696   43.0068 H      1150      M_A    0.0000
  11811 H          68.3482   16.4388   44.3916 H      1150      M_A    0.0000
  11812 H          69.5186   15.9019   43.2453 H      1150      M_A    0.0000
  11813 C          66.6367   18.3218   44.0841 C.3    1151      M_A    0.0000
  11814 C          65.3290   19.0503   44.4256 C.3    1151      M_A    0.0000
  11815 C          64.5289   18.2582   45.4814 C.2    1151      M_A    0.0000
  11816 N          63.3642   18.8500   45.9207 N.3    1151      M_A    0.0000
  11817 O          64.8422   17.1555   45.9223 O.2    1151      M_A    0.0000
  11818 H          66.9905   17.7011   44.9158 H      1151      M_A    0.0000
  11819 H          67.4348   19.0519   43.8935 H      1151      M_A    0.0000
  11820 H          64.6895   19.1318   43.5363 H      1151      M_A    0.0000
  11821 H          63.3050   19.8648   45.8967 H      1151      M_A    0.0000
  11822 H          62.9057   18.3930   46.7006 H      1151      M_A    0.0000
  11823 C          65.5916   20.5382   44.9546 C.3    1152      M_A    0.0000
  11824 C          66.4889   21.3611   44.0191 C.3    1152      M_A    0.0000
  11825 C          65.8033   21.5614   42.6507 C.2    1152      M_A    0.0000
  11826 N          66.4853   22.3470   41.7467 N.3    1152      M_A    0.0000
  11827 O          64.7330   21.0591   42.3181 O.2    1152      M_A    0.0000
  11828 H          64.6293   21.0305   45.1389 H      1152      M_A    0.0000
  11829 H          66.0692   20.4345   45.9381 H      1152      M_A    0.0000
  11830 H          67.4332   20.8337   43.8282 H      1152      M_A    0.0000
  11831 H          67.1091   23.0630   42.1104 H      1152      M_A    0.0000
  11832 H          65.9813   22.5807   40.8990 H      1152      M_A    0.0000
  11833 C          66.8635   22.7853   44.6466 C.3    1153      M_A    0.0000
  11834 C          66.1785   23.0490   45.9952 C.3    1153      M_A    0.0000
  11835 C          67.1094   22.6526   47.1608 C.2    1153      M_A    0.0000
  11836 N          66.6290   22.9092   48.4269 N.3    1153      M_A    0.0000
  11837 O          68.2069   22.1159   47.0354 O.2    1153      M_A    0.0000
  11838 H          67.9543   22.8733   44.7157 H      1153      M_A    0.0000
  11839 H          66.5475   23.5374   43.9112 H      1153      M_A    0.0000
  11840 H          65.2698   22.4395   46.0916 H      1153      M_A    0.0000
  11841 H          65.9709   23.6758   48.5424 H      1153      M_A    0.0000
  11842 H          67.2870   22.7660   49.1844 H      1153      M_A    0.0000
  11843 C          65.7380   24.5797   46.1552 C.3    1154      M_A    0.0000
  11844 C          65.1089   24.8862   47.5218 C.3    1154      M_A    0.0000
  11845 C          65.7620   24.0242   48.6231 C.2    1154      M_A    0.0000
  11846 N          65.3263   24.2615   49.9089 N.3    1154      M_A    0.0000
  11847 O          66.6015   23.1491   48.4284 O.2    1154      M_A    0.0000
  11848 H          66.5981   25.2263   45.9445 H      1154      M_A    0.0000
  11849 H          65.0118   24.7754   45.3549 H      1154      M_A    0.0000
  11850 H          64.0385   24.6401   47.5174 H      1154      M_A    0.0000
  11851 H          64.9791   25.1908   50.1323 H      1154      M_A    0.0000
  11852 H          65.8410   23.7875   50.6423 H      1154      M_A    0.0000
  11853 C          65.2342   26.4352   47.9061 C.3    1155      M_A    0.0000
  11854 C          63.9168   27.0391   48.4132 C.3    1155      M_A    0.0000
  11855 C          64.1879   28.3262   49.2209 C.2    1155      M_A    0.0000
  11856 N          63.0723   28.9989   49.6709 N.3    1155      M_A    0.0000
  11857 O          65.3017   28.7614   49.5009 O.2    1155      M_A    0.0000
  11858 H          66.0495   26.5627   48.6282 H      1155      M_A    0.0000
  11859 H          65.5579   26.9527   46.9931 H      1155      M_A    0.0000
  11860 H          63.4074   26.3397   49.0898 H      1155      M_A    0.0000
  11861 H          62.2113   28.9073   49.1377 H      1155      M_A    0.0000
  11862 H          63.2447   29.9051   50.0908 H      1155      M_A    0.0000
  11863 C          62.9033   27.3587   47.2161 C.3    1156      M_A    0.0000
  11864 C          62.7215   28.8625   46.9653 C.3    1156      M_A    0.0000
  11865 C          63.1337   29.6722   48.2131 C.2    1156      M_A    0.0000
  11866 N          63.0796   31.0434   48.0840 N.3    1156      M_A    0.0000
  11867 O          63.4720   29.1861   49.2890 O.2    1156      M_A    0.0000
  11868 H          63.2317   26.8285   46.3143 H      1156      M_A    0.0000
  11869 H          61.9431   26.9060   47.4978 H      1156      M_A    0.0000
  11870 H          61.6664   29.0957   46.7683 H      1156      M_A    0.0000
  11871 H          63.2062   31.4418   47.1571 H      1156      M_A    0.0000
  11872 H          63.4673   31.5735   48.8560 H      1156      M_A    0.0000
  11873 C          63.5595   29.3648   45.6972 C.3    1157      M_A    0.0000
  11874 C          62.6783   29.9588   44.5891 C.3    1157      M_A    0.0000
  11875 C          63.4137   30.9925   43.9742 C.2    1157      M_A    0.0000
  11876 N          62.8174   31.6218   43.0615 N.3    1157      M_A    0.0000
  11877 O          64.4567   31.2955   44.2546 O.2    1157      M_A    0.0000
  11878 H          64.3308   30.0693   46.0307 H      1157      M_A    0.0000
  11879 H          64.0988   28.4863   45.3181 H      1157      M_A    0.0000
  11880 H          61.8883   30.3884   45.0337 H      1157      M_A    0.0000
  11881 H          62.1567   31.1768   42.5839 H      1157      M_A    0.0000
  11882 H          63.3353   32.2209   42.5821 H      1157      M_A    0.0000
  11883 C          62.1565   29.0524   43.5674 C.3    1158      M_A    0.0000
  11884 C          62.8733   29.1086   42.3634 C.3    1158      M_A    0.0000
  11885 C          64.1977   28.6656   42.5562 C.2    1158      M_A    0.0000
  11886 N          64.9149   28.6146   41.5230 N.3    1158      M_A    0.0000
  11887 O          64.6457   28.3866   43.5461 O.2    1158      M_A    0.0000
  11888 H          62.1197   28.1232   43.9392 H      1158      M_A    0.0000
  11889 H          61.2033   29.3238   43.4123 H      1158      M_A    0.0000
  11890 H          62.9279   30.0531   42.0299 H      1158      M_A    0.0000
  11891 H          64.4950   28.4759   40.7063 H      1158      M_A    0.0000
  11892 H          65.7445   28.2176   41.6290 H      1158      M_A    0.0000
  11893 C          62.2389   28.3168   41.3105 C.3    1159      M_A    0.0000
  11894 C          63.0705   27.3078   40.8036 C.3    1159      M_A    0.0000
  11895 C          62.9001   26.1143   41.5343 C.2    1159      M_A    0.0000
  11896 N          63.5546   25.1209   41.1226 N.3    1159      M_A    0.0000
  11897 O          62.2556   26.0037   42.4458 O.2    1159      M_A    0.0000
  11898 H          61.3706   27.9518   41.6508 H      1159      M_A    0.0000
  11899 H          61.9983   28.9620   40.5811 H      1159      M_A    0.0000
  11900 H          64.0351   27.5685   40.8929 H      1159      M_A    0.0000
  11901 H          63.7709   25.0840   40.2201 H      1159      M_A    0.0000
  11902 H          63.3570   24.3131   41.5292 H      1159      M_A    0.0000
  11903 C          62.8228   27.0549   39.3850 C.3    1160      M_A    0.0000
  11904 C          62.3288   25.7667   39.1334 C.3    1160      M_A    0.0000
  11905 C          60.9212   25.7839   39.0581 C.2    1160      M_A    0.0000
  11906 N          60.3738   24.6871   38.7717 N.3    1160      M_A    0.0000
  11907 O          60.2767   26.6808   39.2543 O.2    1160      M_A    0.0000
  11908 H          62.2170   27.7662   39.0245 H      1160      M_A    0.0000
  11909 H          63.7024   27.1820   38.9199 H      1160      M_A    0.0000
  11910 H          62.5727   25.1439   39.8810 H      1160      M_A    0.0000
  11911 H          60.8569   24.0772   38.2644 H      1160      M_A    0.0000
  11912 H          59.4630   24.7227   38.6103 H      1160      M_A    0.0000
  11913 C          62.8797   25.1991   37.9037 C.3    1161      M_A    0.0000
  11914 C          62.0726   24.1941   37.3514 C.3    1161      M_A    0.0000
  11915 C          60.8760   24.7432   36.8473 C.2    1161      M_A    0.0000
  11916 N          60.1024   23.9354   36.2698 N.3    1161      M_A    0.0000
  11917 O          60.5688   25.8176   36.9461 O.2    1161      M_A    0.0000
  11918 H          63.0585   25.9377   37.2513 H      1161      M_A    0.0000
  11919 H          63.7778   24.8236   38.1460 H      1161      M_A    0.0000
  11920 H          61.8132   23.5256   38.0529 H      1161      M_A    0.0000
  11921 H          60.4752   23.1878   35.8640 H      1161      M_A    0.0000
  11922 H          59.3745   24.3134   35.8405 H      1161      M_A    0.0000
  11923 C          62.7609   23.4595   36.2910 C.3    1162      M_A    0.0000
  11924 C          61.9841   22.4297   35.7408 C.3    1162      M_A    0.0000
  11925 C          61.1806   22.9235   34.6930 C.2    1162      M_A    0.0000
  11926 N          60.4867   22.0678   34.0840 N.3    1162      M_A    0.0000
  11927 O          61.1053   24.0016   34.3923 O.2    1162      M_A    0.0000
  11928 H          63.0757   24.1057   35.5936 H      1162      M_A    0.0000
  11929 H          63.5907   23.0789   36.7068 H      1162      M_A    0.0000
  11930 H          61.3622   22.0508   36.4308 H      1162      M_A    0.0000
  11931 H          60.7979   21.1931   34.0557 H      1162      M_A    0.0000
  11932 H          60.0488   22.3708   33.3267 H      1162      M_A    0.0000
  11933 C          62.8068   21.3250   35.2504 C.3    1163      M_A    0.0000
  11934 C          62.8624   21.2591   33.8506 C.3    1163      M_A    0.0000
  11935 C          63.4159   22.4432   33.3223 C.2    1163      M_A    0.0000
  11936 N          63.5716   22.4661   32.0734 N.3    1163      M_A    0.0000
  11937 O          63.6960   23.3475   33.9241 O.2    1163      M_A    0.0000
  11938 H          63.7187   21.3865   35.6596 H      1163      M_A    0.0000
  11939 H          62.3973   20.4861   35.6174 H      1163      M_A    0.0000
  11940 H          61.9402   21.1718   33.4654 H      1163      M_A    0.0000
  11941 H          63.7031   21.6581   31.6347 H      1163      M_A    0.0000
  11942 H          64.0379   23.1931   31.7400 H      1163      M_A    0.0000
  11943 C          63.6333   20.1068   33.3865 C.3    1164      M_A    0.0000
  11944 C          64.9005   20.4535   32.8959 C.3    1164      M_A    0.0000
  11945 C          65.3923   21.5947   33.5616 C.2    1164      M_A    0.0000
  11946 N          66.5547   21.9575   33.2425 N.3    1164      M_A    0.0000
  11947 O          64.8213   22.1952   34.3177 O.2    1164      M_A    0.0000
  11948 H          63.6882   19.4294   34.1221 H      1164      M_A    0.0000
  11949 H          63.0892   19.6796   32.6601 H      1164      M_A    0.0000
  11950 H          64.8494   20.6846   31.9211 H      1164      M_A    0.0000
  11951 H          67.1458   21.3097   32.9366 H      1164      M_A    0.0000
  11952 H          66.9202   22.6339   33.7581 H      1164      M_A    0.0000
  11953 C          65.8582   19.3567   33.0283 C.3    1165      M_A    0.0000
  11954 C          67.0220   19.5472   32.2693 C.3    1165      M_A    0.0000
  11955 C          68.0323   20.1385   33.0548 C.2    1165      M_A    0.0000
  11956 N          69.1452   20.2972   32.4883 N.3    1165      M_A    0.0000
  11957 O          67.9039   20.4873   34.1132 O.2    1165      M_A    0.0000
  11958 H          66.0622   19.2128   33.9982 H      1165      M_A    0.0000
  11959 H          65.3808   18.5291   32.7226 H      1165      M_A    0.0000
  11960 H          66.8451   20.1717   31.5044 H      1165      M_A    0.0000
  11961 H          69.3740   19.7128   31.8036 H      1165      M_A    0.0000
  11962 H          69.8377   20.5781   33.0347 H      1165      M_A    0.0000
  11963 C          67.5142   18.2950   31.6972 C.3    1166      M_A    0.0000
  11964 C          68.7834   18.4176   31.1136 C.3    1166      M_A    0.0000
  11965 C          69.7885   18.3552   32.1002 C.2    1166      M_A    0.0000
  11966 N          70.9740   18.3917   31.6784 N.3    1166      M_A    0.0000
  11967 O          69.6036   18.3004   33.2052 O.2    1166      M_A    0.0000
  11968 H          67.4913   17.5808   32.3990 H      1166      M_A    0.0000
  11969 H          66.8429   18.0204   31.0043 H      1166      M_A    0.0000
  11970 H          68.8772   19.3066   30.6583 H      1166      M_A    0.0000
  11971 H          71.1438   18.0694   30.8241 H      1166      M_A    0.0000
  11972 H          71.6308   18.2363   32.3121 H      1166      M_A    0.0000
  11973 C          69.0232   17.3892   30.1024 C.3    1167      M_A    0.0000
  11974 C          69.9039   16.3869   30.5343 C.3    1167      M_A    0.0000
  11975 C          70.9124   16.9352   31.3526 C.2    1167      M_A    0.0000
  11976 N          71.7242   16.1111   31.8492 N.3    1167      M_A    0.0000
  11977 O          71.0468   18.0287   31.5638 O.2    1167      M_A    0.0000
  11978 H          68.1454   17.0129   29.8007 H      1167      M_A    0.0000
  11979 H          69.4068   17.8632   29.3059 H      1167      M_A    0.0000
  11980 H          70.3640   15.9611   29.7511 H      1167      M_A    0.0000
  11981 H          71.4295   15.2428   31.9970 H      1167      M_A    0.0000
  11982 H          72.3138   16.4550   32.4746 H      1167      M_A    0.0000
  11983 C          69.2100   15.3219   31.2567 C.3    1168      M_A    0.0000
  11984 C          69.4837   15.3206   32.6321 C.3    1168      M_A    0.0000
  11985 C          68.7365   14.3179   33.2831 C.2    1168      M_A    0.0000
  11986 N          68.9532   14.1858   34.5161 N.3    1168      M_A    0.0000
  11987 O          67.9675   13.6661   32.7911 O.2    1168      M_A    0.0000
  11988 H          68.2281   15.3825   31.0695 H      1168      M_A    0.0000
  11989 H          69.5150   14.4593   30.8453 H      1168      M_A    0.0000
  11990 H          69.2181   16.1956   33.0447 H      1168      M_A    0.0000
  11991 H          69.7908   14.4225   34.8401 H      1168      M_A    0.0000
  11992 H          68.5500   13.4563   34.9190 H      1168      M_A    0.0000
  11993 C          70.9068   15.1295   32.9075 C.3    1169      M_A    0.0000
  11994 C          71.2174   13.8263   33.3221 C.3    1169      M_A    0.0000
  11995 C          71.1004   12.9246   32.2448 C.2    1169      M_A    0.0000
  11996 N          71.4189   11.7318   32.4909 N.3    1169      M_A    0.0000
  11997 O          70.7303   13.1904   31.2197 O.2    1169      M_A    0.0000
  11998 H          71.4376   15.4041   32.1038 H      1169      M_A    0.0000
  11999 H          71.1431   15.7848   33.6293 H      1169      M_A    0.0000
  12000 H          70.5756   13.5196   34.0294 H      1169      M_A    0.0000
  12001 H          72.0451   11.5759   33.1588 H      1169      M_A    0.0000
  12002 H          71.4517   11.1657   31.7592 H      1169      M_A    0.0000
  12003 C          72.5606   13.7383   33.8927 C.3    1170      M_A    0.0000
  12004 C          73.3245   12.6975   33.3450 C.3    1170      M_A    0.0000
  12005 C          73.7756   13.0424   32.0547 C.2    1170      M_A    0.0000
  12006 N          74.5265   12.2024   31.4934 N.3    1170      M_A    0.0000
  12007 O          73.4969   13.9793   31.5042 O.2    1170      M_A    0.0000
  12008 H          73.0158   14.6258   33.8019 H      1170      M_A    0.0000
  12009 H          72.4379   13.5924   34.8775 H      1170      M_A    0.0000
  12010 H          72.7696   11.8675   33.2472 H      1170      M_A    0.0000
  12011 H          75.0439   11.6505   32.0322 H      1170      M_A    0.0000
  12012 H          74.9133   12.4773   30.6986 H      1170      M_A    0.0000
  12013 C          74.4675   12.3538   34.1894 C.3    1171      M_A    0.0000
  12014 C          74.7671   10.9838   34.1796 C.3    1171      M_A    0.0000
  12015 C          75.2368   10.5904   32.9099 C.2    1171      M_A    0.0000
  12016 N          75.5967    9.3886   32.8064 N.3    1171      M_A    0.0000
  12017 O          75.2864   11.2548   32.0074 O.2    1171      M_A    0.0000
  12018 H          75.2546   12.9120   33.9215 H      1171      M_A    0.0000
  12019 H          74.2275   12.6459   35.1186 H      1171      M_A    0.0000
  12020 H          73.9437   10.4420   34.3660 H      1171      M_A    0.0000
  12021 H          75.9083    8.9588   33.5685 H      1171      M_A    0.0000
  12022 H          76.0100    9.1601   32.0102 H      1171      M_A    0.0000
  12023 C          75.7539   10.6314   35.1992 C.3    1172      M_A    0.0000
  12024 C          75.6992    9.2815   35.5752 C.3    1172      M_A    0.0000
  12025 C          76.6406    8.5273   34.8456 C.2    1172      M_A    0.0000
  12026 N          76.7212    7.3084   35.1497 N.3    1172      M_A    0.0000
  12027 O          77.2861    8.9278   34.0201 O.2    1172      M_A    0.0000
  12028 H          76.6658   10.8954   34.8802 H      1172      M_A    0.0000
  12029 H          75.5602   11.2162   35.9908 H      1172      M_A    0.0000
  12030 H          74.7960    8.8955   35.3711 H      1172      M_A    0.0000
  12031 H          76.5007    7.0592   36.0168 H      1172      M_A    0.0000
  12032 H          77.4148    6.8405   34.7535 H      1172      M_A    0.0000
  12033 C          75.9300    9.1019   37.0077 C.3    1173      M_A    0.0000
  12034 C          77.2901    9.0904   37.3492 C.3    1173      M_A    0.0000
  12035 C          78.0895    9.0253   36.1899 C.2    1173      M_A    0.0000
  12036 N          79.3333    9.0735   36.3779 N.3    1173      M_A    0.0000
  12037 O          77.6994    8.9130   35.1441 O.2    1173      M_A    0.0000
  12038 H          75.4220    9.8014   37.5134 H      1173      M_A    0.0000
  12039 H          75.5074    8.2255   37.2521 H      1173      M_A    0.0000
  12040 H          77.5082    8.2802   37.8991 H      1173      M_A    0.0000
  12041 H          79.6443    9.5214   37.1297 H      1173      M_A    0.0000
  12042 H          79.8524    9.1459   35.6148 H      1173      M_A    0.0000
  12043 C          77.6663   10.2611   38.1402 C.3    1174      M_A    0.0000
  12044 C          77.9719    9.9500   39.4730 C.3    1174      M_A    0.0000
  12045 C          77.6143    8.6177   39.7635 C.2    1174      M_A    0.0000
  12046 N          77.9038    8.2115   40.9192 N.3    1174      M_A    0.0000
  12047 O          77.0830    7.9253   39.0586 O.2    1174      M_A    0.0000
  12048 H          78.4194   10.7385   37.6842 H      1174      M_A    0.0000
  12049 H          76.8832   10.8869   38.1047 H      1174      M_A    0.0000
  12050 H          77.4501   10.5346   40.0995 H      1174      M_A    0.0000
  12051 H          78.6292    8.6001   41.3498 H      1174      M_A    0.0000
  12052 H          77.7738    7.3077   41.0718 H      1174      M_A    0.0000
  12053 C          79.3882   10.1549   39.7727 C.3    1175      M_A    0.0000
  12054 C          79.8108    9.4772   40.9254 C.3    1175      M_A    0.0000
  12055 C          79.1877    8.2156   41.0127 C.2    1175      M_A    0.0000
  12056 N          79.5443    7.4935   41.9801 N.3    1175      M_A    0.0000
  12057 O          78.4009    7.8360   40.3090 O.2    1175      M_A    0.0000
  12058 H          79.9338    9.9070   38.9703 H      1175      M_A    0.0000
  12059 H          79.5094   11.1435   39.8921 H      1175      M_A    0.0000
  12060 H          79.5512    9.9876   41.7491 H      1175      M_A    0.0000
  12061 H          80.4003    7.6112   42.3207 H      1175      M_A    0.0000
  12062 H          79.2225    6.6255   41.9735 H      1175      M_A    0.0000
  12063 C          81.2630    9.3113   40.9621 C.3    1176      M_A    0.0000
  12064 C          81.8974   10.2051   41.8369 C.3    1176      M_A    0.0000
  12065 C          81.3831   10.0671   43.1422 C.2    1176      M_A    0.0000
  12066 N          81.9281   10.7803   44.0247 N.3    1176      M_A    0.0000
  12067 O          80.5292    9.3992   43.4306 O.2    1176      M_A    0.0000
  12068 H          81.4802    8.3577   41.1774 H      1176      M_A    0.0000
  12069 H          81.5861    9.4614   40.0244 H      1176      M_A    0.0000
  12070 H          81.7276   11.1531   41.5559 H      1176      M_A    0.0000
  12071 H          82.8148   11.0272   43.9006 H      1176      M_A    0.0000
  12072 H          81.6700   10.6075   44.8968 H      1176      M_A    0.0000
  12073 C          83.3470   10.0158   41.8575 C.3    1177      M_A    0.0000
  12074 C          83.9920   10.8065   42.8194 C.3    1177      M_A    0.0000
  12075 C          84.3923   10.0189   43.9180 C.2    1177      M_A    0.0000
  12076 N          85.0397   10.6185   44.8158 N.3    1177      M_A    0.0000
  12077 O          84.1572    8.9300   44.0494 O.2    1177      M_A    0.0000
  12078 H          83.5503    9.0421   41.9745 H      1177      M_A    0.0000
  12079 H          83.6742   10.2561   40.9402 H      1177      M_A    0.0000
  12080 H          83.3681   11.5068   43.1753 H      1177      M_A    0.0000
  12081 H          85.5424   11.3600   44.5705 H      1177      M_A    0.0000
  12082 H          85.3997   10.0814   45.4783 H      1177      M_A    0.0000
  12083 C          85.1518   11.5044   42.2668 C.3    1178      M_A    0.0000
  12084 C          85.4491   12.6977   42.9409 C.2    1178      M_A    0.0000
  12085 C          86.3649   12.4594   43.9859 C.2    1178      M_A    0.0000
  12086 N          86.7512   13.4763   44.6193 N.3    1178      M_A    0.0000
  12087 O          86.7415   11.4486   44.2940 O.2    1178      M_A    0.0000
  12088 H          85.9341   10.8794   42.2477 H      1178      M_A    0.0000
  12089 H          84.9317   11.6979   41.3075 H      1178      M_A    0.0000
  12090 H          84.6221   13.0805   43.3603 H      1178      M_A    0.0000
  12091 H          86.7594   14.2913   44.1738 H      1178      M_A    0.0000
  12092 H          87.4354   13.3354   45.2267 H      1178      M_A    0.0000
  12093 C          30.5784   79.2378   32.3207 C.2    1179      M_A    0.0000
  12094 C          30.3763   80.0334   33.0922 C.3    1179      M_A    0.0000
  12095 C          29.5177   80.6951   32.7641 C.2    1179      M_A    0.0000
  12096 N          29.2339   81.4079   33.4229 N.3    1179      M_A    0.0000
  12097 O          29.0967   80.6400   31.9691 O.2    1179      M_A    0.0000
  12098 H          30.6135   78.5032   32.6471 H      1179      M_A    0.0000
  12099 H          31.2977   79.3616   31.9788 H      1179      M_A    0.0000
  12100 H          31.0192   80.5113   33.1808 H      1179      M_A    0.0000
  12101 H          29.3479   81.2798   34.1491 H      1179      M_A    0.0000
  12102 H          28.6145   81.7806   33.2483 H      1179      M_A    0.0000
  12103 C          30.1395   79.5738   34.1469 C.3    1180      M_A    0.0000
  12104 C          31.0009   79.6553   34.8685 C.3    1180      M_A    0.0000
  12105 C          31.8886   79.0591   34.4953 C.2    1180      M_A    0.0000
  12106 N          32.7267   79.1175   35.0583 N.3    1180      M_A    0.0000
  12107 O          31.8892   78.5369   33.7608 O.2    1180      M_A    0.0000
  12108 H          29.4695   79.9109   34.4381 H      1180      M_A    0.0000
  12109 H          29.9590   78.7988   34.0195 H      1180      M_A    0.0000
  12110 H          30.7987   79.3492   35.5861 H      1180      M_A    0.0000
  12111 H          32.8371   79.7366   35.4599 H      1180      M_A    0.0000
  12112 H          33.3340   78.8024   34.7667 H      1180      M_A    0.0000
  12113 C          31.3217   80.7711   35.0468 C.3    1181      M_A    0.0000
  12114 C          31.1584   81.1143   36.1074 C.3    1181      M_A    0.0000
  12115 C          32.0005   81.7956   36.4379 C.2    1181      M_A    0.0000
  12116 N          31.9087   82.1926   37.3635 N.3    1181      M_A    0.0000
  12117 O          32.7342   81.9854   35.9501 O.2    1181      M_A    0.0000
  12118 H          32.0856   80.8673   34.8131 H      1181      M_A    0.0000
  12119 H          30.8789   81.2162   34.5417 H      1181      M_A    0.0000
  12120 H          31.1553   80.4851   36.6110 H      1181      M_A    0.0000
  12121 H          31.2212   82.2925   37.6358 H      1181      M_A    0.0000
  12122 H          32.4120   82.7094   37.5444 H      1181      M_A    0.0000
  12123 C          30.1298   81.6663   36.2379 C.3    1182      M_A    0.0000
  12124 C          30.2425   82.7651   36.4600 C.3    1182      M_A    0.0000
  12125 C          31.1201   83.1971   35.8892 C.2    1182      M_A    0.0000
  12126 N          31.2643   84.1929   35.9902 N.3    1182      M_A    0.0000
  12127 O          31.6919   82.7205   35.3811 O.2    1182      M_A    0.0000
  12128 H          29.6748   81.5354   35.5874 H      1182      M_A    0.0000
  12129 H          29.7529   81.2990   36.8482 H      1182      M_A    0.0000
  12130 H          30.3930   82.8813   37.2432 H      1182      M_A    0.0000
  12131 H          30.6708   84.6201   36.1383 H      1182      M_A    0.0000
  12132 H          31.7809   84.4910   35.5459 H      1182      M_A    0.0000
  12133 C          29.2684   83.3685   36.2020 C.3    1183      M_A    0.0000
  12134 C          28.6124   83.5543   37.0990 C.3    1183      M_A    0.0000
  12135 C          28.8302   84.5720   37.5456 C.2    1183      M_A    0.0000
  12136 N          28.2491   84.8436   38.3274 N.3    1183      M_A    0.0000
  12137 O          29.4815   85.1300   37.2686 O.2    1183      M_A    0.0000
  12138 H          29.4715   84.0526   35.8303 H      1183      M_A    0.0000
  12139 H          28.8702   82.9304   35.6553 H      1183      M_A    0.0000
  12140 H          28.7598   83.0099   37.6747 H      1183      M_A    0.0000
  12141 H          27.5602   84.5597   38.3679 H      1183      M_A    0.0000
  12142 H          28.3295   85.5451   38.5610 H      1183      M_A    0.0000
  12143 C          27.4709   83.4760   36.8334 C.3    1184      M_A    0.0000
  12144 C          26.8323   83.1736   37.7108 C.3    1184      M_A    0.0000
  12145 C          26.5860   84.0747   38.3512 C.2    1184      M_A    0.0000
  12146 N          25.9717   83.9029   39.1360 N.3    1184      M_A    0.0000
  12147 O          26.9083   84.9061   38.2204 O.2    1184      M_A    0.0000
  12148 H          27.2268   84.1701   36.5078 H      1184      M_A    0.0000
  12149 H          27.4132   82.9255   36.2477 H      1184      M_A    0.0000
  12150 H          27.2274   82.6528   38.1821 H      1184      M_A    0.0000
  12151 H          25.4849   83.3398   39.0838 H      1184      M_A    0.0000
  12152 H          25.7372   84.5072   39.5006 H      1184      M_A    0.0000
  12153 C          25.8386   82.6473   37.3714 C.3    1185      M_A    0.0000
  12154 C          24.9469   83.3358   37.3833 C.3    1185      M_A    0.0000
  12155 C          25.2791   84.4131   37.4922 C.2    1185      M_A    0.0000
  12156 N          24.5435   85.1063   37.4610 N.3    1185      M_A    0.0000
  12157 O          26.1298   84.6817   37.6200 O.2    1185      M_A    0.0000
  12158 H          25.9505   82.3114   36.6489 H      1185      M_A    0.0000
  12159 H          25.7215   82.0357   37.8830 H      1185      M_A    0.0000
  12160 H          24.4720   83.1727   38.0136 H      1185      M_A    0.0000
  12161 H          23.9256   84.9452   37.0750 H      1185      M_A    0.0000
  12162 H          24.7685   85.8149   37.4402 H      1185      M_A    0.0000
  12163 C          24.2895   83.2214   36.4166 C.3    1186      M_A    0.0000
  12164 C          23.2242   82.9292   36.6381 C.2    1186      M_A    0.0000
  12165 C          22.5767   83.8508   36.7569 C.2    1186      M_A    0.0000
  12166 N          21.5913   83.6805   36.9078 N.3    1186      M_A    0.0000
  12167 O          22.8782   84.7000   36.7445 O.2    1186      M_A    0.0000
  12168 H          24.3327   83.8994   35.9855 H      1186      M_A    0.0000
  12169 H          24.6440   82.6527   35.9691 H      1186      M_A    0.0000
  12170 H          23.1811   82.5221   37.3323 H      1186      M_A    0.0000
  12171 H          21.2973   83.0528   36.6315 H      1186      M_A    0.0000
  12172 H          21.1540   84.2819   36.8941 H      1186      M_A    0.0000
  12173 C          88.1822   17.3137   37.2443 C.2    1187      M_A    0.0000
  12174 C          86.8758   16.6317   36.8134 C.3    1187      M_A    0.0000
  12175 C          86.6156   15.7557   37.9236 C.2    1187      M_A    0.0000
  12176 N          85.5598   15.0313   37.8291 N.3    1187      M_A    0.0000
  12177 O          87.2829   15.6497   38.8470 O.2    1187      M_A    0.0000
  12178 H          88.0328   17.9856   38.0978 H      1187      M_A    0.0000
  12179 H          88.5639   17.9434   36.4295 H      1187      M_A    0.0000
  12180 H          87.0267   16.0366   35.9948 H      1187      M_A    0.0000
  12181 H          84.8399   15.3590   37.3078 H      1187      M_A    0.0000
  12182 H          85.3261   14.5446   38.6038 H      1187      M_A    0.0000
  12183 C          85.6681   17.4614   36.5361 C.3    1188      M_A    0.0000
  12184 C          85.9848   18.7909   36.1143 C.3    1188      M_A    0.0000
  12185 C          86.7525   18.7641   34.8988 C.2    1188      M_A    0.0000
  12186 N          87.0385   19.9087   34.3923 N.3    1188      M_A    0.0000
  12187 O          87.1332   17.8163   34.3831 O.2    1188      M_A    0.0000
  12188 H          85.0754   16.9764   35.8601 H      1188      M_A    0.0000
  12189 H          85.1336   17.4888   37.4080 H      1188      M_A    0.0000
  12190 H          86.5586   19.2636   36.8174 H      1188      M_A    0.0000
  12191 H          86.4495   20.6309   34.5626 H      1188      M_A    0.0000
  12192 H          87.4394   19.8900   33.5377 H      1188      M_A    0.0000
  12193 C          84.7617   19.6207   35.9162 C.3    1189      M_A    0.0000
  12194 C          84.9699   20.7261   35.0327 C.3    1189      M_A    0.0000
  12195 C          84.8315   20.3093   33.6635 C.2    1189      M_A    0.0000
  12196 N          84.9347   21.2380   32.7829 N.3    1189      M_A    0.0000
  12197 O          84.6640   19.2312   33.3188 O.2    1189      M_A    0.0000
  12198 H          83.9957   19.0209   35.6049 H      1189      M_A    0.0000
  12199 H          84.4928   19.9595   36.8434 H      1189      M_A    0.0000
  12200 H          85.9188   21.0948   35.1363 H      1189      M_A    0.0000
  12201 H          84.6947   22.1191   33.0345 H      1189      M_A    0.0000
  12202 H          84.7290   20.9866   31.8963 H      1189      M_A    0.0000
  12203 C          84.0299   21.8496   35.3119 C.3    1190      M_A    0.0000
  12204 C          82.7829   21.7229   34.6228 C.3    1190      M_A    0.0000
  12205 C          82.2884   20.3762   34.7200 C.2    1190      M_A    0.0000
  12206 N          81.1386   20.1628   34.1900 N.3    1190      M_A    0.0000
  12207 O          82.8488   19.5041   35.2043 O.2    1190      M_A    0.0000
  12208 H          83.9020   21.9375   36.3215 H      1190      M_A    0.0000
  12209 H          84.5087   22.7036   35.0150 H      1190      M_A    0.0000
  12210 H          82.9010   21.9246   33.6266 H      1190      M_A    0.0000
  12211 H          80.5296   20.8867   34.1407 H      1190      M_A    0.0000
  12212 H          80.7631   19.3122   34.3545 H      1190      M_A    0.0000
  12213 C          81.7575   22.6720   35.1439 C.3    1191      M_A    0.0000
  12214 C          81.2925   23.5951   34.1552 C.3    1191      M_A    0.0000
  12215 C          79.9249   23.9590   34.4097 C.2    1191      M_A    0.0000
  12216 N          79.4228   24.8361   33.6179 N.3    1191      M_A    0.0000
  12217 O          79.2687   23.5120   35.2335 O.2    1191      M_A    0.0000
  12218 H          80.9914   22.1420   35.5630 H      1191      M_A    0.0000
  12219 H          82.2017   23.1784   35.9141 H      1191      M_A    0.0000
  12220 H          81.3181   23.1685   33.2255 H      1191      M_A    0.0000
  12221 H          80.0101   25.4607   33.2150 H      1191      M_A    0.0000
  12222 H          78.5678   25.1598   33.8542 H      1191      M_A    0.0000
  12223 C          82.1355   24.8239   34.0974 C.3    1192      M_A    0.0000
  12224 C          81.3799   26.0119   33.8454 C.3    1192      M_A    0.0000
  12225 C          80.4536   26.2565   34.9176 C.2    1192      M_A    0.0000
  12226 N          79.7657   27.3368   34.8271 N.3    1192      M_A    0.0000
  12227 O          80.2793   25.5582   35.8071 O.2    1192      M_A    0.0000
  12228 H          82.6852   24.8947   34.9554 H      1192      M_A    0.0000
  12229 H          82.8109   24.6721   33.3440 H      1192      M_A    0.0000
  12230 H          80.8255   25.9105   32.9914 H      1192      M_A    0.0000
  12231 H          80.1412   28.0656   34.3525 H      1192      M_A    0.0000
  12232 H          79.2451   27.5556   35.5838 H      1192      M_A    0.0000
  12233 C          82.2574   27.2034   33.6598 C.3    1193      M_A    0.0000
  12234 C          81.5415   28.4408   33.7066 C.3    1193      M_A    0.0000
  12235 C          80.3634   28.3104   34.5206 C.2    1193      M_A    0.0000
  12236 N          79.6763   29.3823   34.6861 N.3    1193      M_A    0.0000
  12237 O          79.9981   27.3359   34.9960 O.2    1193      M_A    0.0000
  12238 H          83.0145   27.1730   34.3448 H      1193      M_A    0.0000
  12239 H          82.7026   27.0910   32.7454 H      1193      M_A    0.0000
  12240 H          81.2274   28.7097   32.7707 H      1193      M_A    0.0000
  12241 H          80.1292   30.2132   34.6412 H      1193      M_A    0.0000
  12242 H          78.9715   29.3248   35.3119 H      1193      M_A    0.0000
  12243 C          82.3863   29.5560   34.2230 C.3    1194      M_A    0.0000
  12244 C          82.8260   30.4494   33.1961 C.3    1194      M_A    0.0000
  12245 C          81.7274   31.2421   32.7141 C.2    1194      M_A    0.0000
  12246 N          82.0211   32.1275   31.8320 N.3    1194      M_A    0.0000
  12247 O          80.6373   31.1208   33.0399 O.2    1194      M_A    0.0000
  12248 H          81.8815   30.0442   34.9648 H      1194      M_A    0.0000
  12249 H          83.1931   29.1180   34.6748 H      1194      M_A    0.0000
  12250 H          83.1880   29.9256   32.3952 H      1194      M_A    0.0000
  12251 H          82.8967   32.4888   31.8378 H      1194      M_A    0.0000
  12252 H          81.3256   32.7233   31.6020 H      1194      M_A    0.0000
  12253 C          83.9217   31.3451   33.6661 C.3    1195      M_A    0.0000
  12254 C          84.2376   32.3830   32.7339 C.3    1195      M_A    0.0000
  12255 C          84.8025   33.5165   33.4148 C.2    1195      M_A    0.0000
  12256 N          85.1846   34.4861   32.6649 N.3    1195      M_A    0.0000
  12257 O          84.9078   33.6154   34.5498 O.2    1195      M_A    0.0000
  12258 H          83.6799   31.7175   34.5860 H      1195      M_A    0.0000
  12259 H          84.7380   30.7458   33.8125 H      1195      M_A    0.0000
  12260 H          83.3912   32.7116   32.2621 H      1195      M_A    0.0000
  12261 H          85.4546   34.2848   31.7795 H      1195      M_A    0.0000
  12262 H          85.6597   35.1771   33.0990 H      1195      M_A    0.0000
  12263 C          85.1771   31.9156   31.6743 C.3    1196      M_A    0.0000
  12264 C          84.8181   32.3683   30.3659 C.3    1196      M_A    0.0000
  12265 C          85.3447   33.6848   30.1265 C.2    1196      M_A    0.0000
  12266 N          85.1371   34.1657   28.9543 N.3    1196      M_A    0.0000
  12267 O          85.8992   34.3208   30.8992 O.2    1196      M_A    0.0000
  12268 H          86.1291   32.1876   31.9257 H      1196      M_A    0.0000
  12269 H          85.1601   30.8931   31.7079 H      1196      M_A    0.0000
  12270 H          83.8011   32.4344   30.2752 H      1196      M_A    0.0000
  12271 H          85.0408   33.5579   28.2341 H      1196      M_A    0.0000
  12272 H          85.5805   34.9763   28.7596 H      1196      M_A    0.0000
  12273 C          85.2938   31.4375   29.3024 C.3    1197      M_A    0.0000
  12274 C          84.5223   31.5165   28.1005 C.3    1197      M_A    0.0000
  12275 C          84.3770   32.8853   27.6846 C.2    1197      M_A    0.0000
  12276 N          83.7543   33.0703   26.5772 N.3    1197      M_A    0.0000
  12277 O          84.7492   33.7934   28.2726 O.2    1197      M_A    0.0000
  12278 H          86.2872   31.6027   29.1310 H      1197      M_A    0.0000
  12279 H          85.2309   30.4958   29.6974 H      1197      M_A    0.0000
  12280 H          83.5790   31.1514   28.2547 H      1197      M_A    0.0000
  12281 H          83.7846   32.3807   25.9284 H      1197      M_A    0.0000
  12282 H          83.7604   33.9547   26.2465 H      1197      M_A    0.0000
  12283 C          85.1264   30.7184   26.9951 C.3    1198      M_A    0.0000
  12284 C          84.1642   30.2657   26.0385 C.3    1198      M_A    0.0000
  12285 C          83.0112   29.7212   26.7031 C.2    1198      M_A    0.0000
  12286 N          82.0520   29.3419   25.9386 N.3    1198      M_A    0.0000
  12287 O          82.9078   29.5868   27.8346 O.2    1198      M_A    0.0000
  12288 H          85.8739   31.2609   26.5588 H      1198      M_A    0.0000
  12289 H          85.5836   29.9172   27.4376 H      1198      M_A    0.0000
  12290 H          84.5559   29.5166   25.4620 H      1198      M_A    0.0000
  12291 H          81.9541   29.7716   25.1000 H      1198      M_A    0.0000
  12292 H          81.2527   29.0942   26.3761 H      1198      M_A    0.0000
  12293 C          83.7407   31.3557   25.1129 C.3    1199      M_A    0.0000
  12294 C          82.4111   31.1842   24.6144 C.3    1199      M_A    0.0000
  12295 C          81.4474   31.4604   25.6451 C.2    1199      M_A    0.0000
  12296 N          80.2151   31.4001   25.2896 N.3    1199      M_A    0.0000
  12297 O          81.7015   31.6998   26.7348 O.2    1199      M_A    0.0000
  12298 H          83.8619   32.2571   25.5778 H      1199      M_A    0.0000
  12299 H          84.4088   31.3484   24.3380 H      1199      M_A    0.0000
  12300 H          82.2605   30.2163   24.3188 H      1199      M_A    0.0000
  12301 H          80.0033   31.5823   24.3845 H      1199      M_A    0.0000
  12302 H          79.5885   31.6937   25.9320 H      1199      M_A    0.0000
  12303 C          82.1417   32.0512   23.4313 C.3    1200      M_A    0.0000
  12304 C          80.7572   32.1019   23.0758 C.3    1200      M_A    0.0000
  12305 C          80.0029   32.7929   24.0863 C.2    1200      M_A    0.0000
  12306 N          78.7534   32.9546   23.8390 N.3    1200      M_A    0.0000
  12307 O          80.4284   33.1749   25.0773 O.2    1200      M_A    0.0000
  12308 H          82.5274   32.9815   23.6018 H      1200      M_A    0.0000
  12309 H          82.6871   31.6593   22.6595 H      1200      M_A    0.0000
  12310 H          80.3688   31.1576   23.0091 H      1200      M_A    0.0000
  12311 H          78.4809   33.0003   22.9329 H      1200      M_A    0.0000
  12312 H          78.2841   33.5070   24.4441 H      1200      M_A    0.0000
  12313 C          80.5433   32.7586   21.7541 C.3    1201      M_A    0.0000
  12314 C          79.7863   33.9688   21.8442 C.3    1201      M_A    0.0000
  12315 C          80.6304   35.0620   22.2443 C.2    1201      M_A    0.0000
  12316 N          80.0668   36.2145   22.2949 N.3    1201      M_A    0.0000
  12317 O          81.7332   34.9682   22.5345 O.2    1201      M_A    0.0000
  12318 H          81.4472   32.9053   21.3017 H      1201      M_A    0.0000
  12319 H          80.0470   32.0778   21.1735 H      1201      M_A    0.0000
  12320 H          79.0551   33.8830   22.5548 H      1201      M_A    0.0000
  12321 H          79.3265   36.3738   21.7256 H      1201      M_A    0.0000
  12322 H          80.6441   36.9468   22.4431 H      1201      M_A    0.0000
  12323 C          79.1105   34.3025   20.5575 C.3    1202      M_A    0.0000
  12324 C          80.0051   34.8284   19.5731 C.3    1202      M_A    0.0000
  12325 C          80.7293   33.7647   18.9314 C.2    1202      M_A    0.0000
  12326 N          81.5173   34.1180   17.9814 N.3    1202      M_A    0.0000
  12327 O          80.6672   32.6596   19.2214 O.2    1202      M_A    0.0000
  12328 H          78.6089   33.4799   20.2183 H      1202      M_A    0.0000
  12329 H          78.3920   34.9951   20.7830 H      1202      M_A    0.0000
  12330 H          80.7001   35.4396   20.0094 H      1202      M_A    0.0000
  12331 H          81.3067   34.9045   17.4972 H      1202      M_A    0.0000
  12332 H          81.9025   33.4132   17.4850 H      1202      M_A    0.0000
  12333 C          79.2911   35.6395   18.5454 C.3    1203      M_A    0.0000
  12334 C          80.1362   36.0488   17.4663 C.3    1203      M_A    0.0000
  12335 C          79.4193   36.0041   16.2207 C.2    1203      M_A    0.0000
  12336 N          80.0642   36.4145   15.1891 N.3    1203      M_A    0.0000
  12337 O          78.3510   35.6154   16.0912 O.2    1203      M_A    0.0000
  12338 H          78.4743   35.1216   18.2167 H      1203      M_A    0.0000
  12339 H          78.9242   36.4605   19.0334 H      1203      M_A    0.0000
  12340 H          80.9328   35.4135   17.3733 H      1203      M_A    0.0000
  12341 H          80.7471   37.0583   15.3177 H      1203      M_A    0.0000
  12342 H          79.5591   36.4951   14.3954 H      1203      M_A    0.0000
  12343 C          80.6889   37.4176   17.6775 C.3    1204      M_A    0.0000
  12344 C          80.3862   38.3168   16.6072 C.3    1204      M_A    0.0000
  12345 C          78.9706   38.5597   16.5387 C.2    1204      M_A    0.0000
  12346 N          78.5906   39.4064   15.6515 N.3    1204      M_A    0.0000
  12347 O          78.1835   38.0436   17.1893 O.2    1204      M_A    0.0000
  12348 H          80.3678   37.7741   18.5793 H      1204      M_A    0.0000
  12349 H          81.7022   37.3064   17.7653 H      1204      M_A    0.0000
  12350 H          80.6617   37.9116   15.7090 H      1204      M_A    0.0000
  12351 H          79.1988   40.0856   15.3946 H      1204      M_A    0.0000
  12352 H          77.6796   39.6526   15.6838 H      1204      M_A    0.0000
  12353 C          81.1108   39.6130   16.7444 C.3    1205      M_A    0.0000
  12354 C          80.2780   40.6745   17.2193 C.3    1205      M_A    0.0000
  12355 C          78.9467   40.5443   16.6920 C.2    1205      M_A    0.0000
  12356 N          78.0939   41.4105   17.1055 N.3    1205      M_A    0.0000
  12357 O          78.6155   39.7558   15.9318 O.2    1205      M_A    0.0000
  12358 H          81.9326   39.4775   17.3358 H      1205      M_A    0.0000
  12359 H          81.4701   39.8396   15.8136 H      1205      M_A    0.0000
  12360 H          80.6351   41.5798   16.9035 H      1205      M_A    0.0000
  12361 H          78.2269   41.7928   17.9619 H      1205      M_A    0.0000
  12362 H          77.1975   41.2563   16.8521 H      1205      M_A    0.0000
  12363 C          80.2247   40.7193   18.7089 C.3    1206      M_A    0.0000
  12364 C          80.8978   41.8542   19.2611 C.2    1206      M_A    0.0000
  12365 C          79.9849   42.9540   19.4177 C.2    1206      M_A    0.0000
  12366 N          80.4686   44.0087   19.9673 N.3    1206      M_A    0.0000
  12367 O          78.8942   42.9566   19.0720 O.2    1206      M_A    0.0000
  12368 H          79.2506   40.6673   19.0119 H      1206      M_A    0.0000
  12369 H          80.6663   39.8567   19.0370 H      1206      M_A    0.0000
  12370 H          81.6404   42.1719   18.6330 H      1206      M_A    0.0000
  12371 H          81.1903   43.9048   20.5721 H      1206      M_A    0.0000
  12372 H          79.8440   44.6855   20.1756 H      1206      M_A    0.0000
  12373 C          87.2525   13.1722   36.7995 C.2    1207      M_A    0.0000
  12374 C          87.0547   11.6642   37.0102 C.3    1207      M_A    0.0000
  12375 C          86.7163   11.2334   38.3027 C.2    1207      M_A    0.0000
  12376 N          86.4806   10.0084   38.4258 N.3    1207      M_A    0.0000
  12377 O          86.6680   11.8897   39.2053 O.2    1207      M_A    0.0000
  12378 H          86.3887   13.7522   37.1456 H      1207      M_A    0.0000
  12379 H          87.3520   13.3920   35.7280 H      1207      M_A    0.0000
  12380 H          87.9068   11.2040   36.7651 H      1207      M_A    0.0000
  12381 H          86.1594    9.5511   37.6889 H      1207      M_A    0.0000
  12382 H          86.1492    9.7451   39.2447 H      1207      M_A    0.0000
  12383 C          86.0405   11.2194   36.0651 C.3    1208      M_A    0.0000
  12384 C          84.8605   11.9627   36.1369 C.3    1208      M_A    0.0000
  12385 C          85.1093   13.3106   35.8336 C.2    1208      M_A    0.0000
  12386 N          84.1041   14.0589   35.8067 N.3    1208      M_A    0.0000
  12387 O          86.1189   13.7492   35.6434 O.2    1208      M_A    0.0000
  12388 H          86.4266   11.2193   35.1456 H      1208      M_A    0.0000
  12389 H          85.8555   10.2625   36.2839 H      1208      M_A    0.0000
  12390 H          84.4865   11.9382   37.0629 H      1208      M_A    0.0000
  12391 H          83.2869   13.6820   35.5935 H      1208      M_A    0.0000
  12392 H          84.2508   14.9150   35.4978 H      1208      M_A    0.0000
  12393 C          83.8330   11.4425   35.2462 C.3    1209      M_A    0.0000
  12394 C          83.2857   12.4188   34.4111 C.3    1209      M_A    0.0000
  12395 C          84.1335   12.6631   33.3191 C.2    1209      M_A    0.0000
  12396 N          83.7078   13.4803   32.4693 N.3    1209      M_A    0.0000
  12397 O          85.1429   12.2065   33.1763 O.2    1209      M_A    0.0000
  12398 H          84.2047   10.6747   34.7297 H      1209      M_A    0.0000
  12399 H          83.1226   11.0582   35.8338 H      1209      M_A    0.0000
  12400 H          83.1872   13.2839   34.9007 H      1209      M_A    0.0000
  12401 H          82.7924   13.5677   32.3704 H      1209      M_A    0.0000
  12402 H          84.2095   13.5547   31.6995 H      1209      M_A    0.0000
  12403 C          81.9632   12.0462   33.9297 C.3    1210      M_A    0.0000
  12404 C          81.3659   13.0358   33.1462 C.3    1210      M_A    0.0000
  12405 C          80.2513   12.5189   32.4670 C.2    1210      M_A    0.0000
  12406 N          79.6002   13.3413   31.7807 N.3    1210      M_A    0.0000
  12407 O          79.9316   11.4487   32.4807 O.2    1210      M_A    0.0000
  12408 H          82.0226   11.1744   33.4492 H      1210      M_A    0.0000
  12409 H          81.4089   11.8729   34.7425 H      1210      M_A    0.0000
  12410 H          82.0029   13.3639   32.4502 H      1210      M_A    0.0000
  12411 H          79.6107   14.2290   32.0401 H      1210      M_A    0.0000
  12412 H          78.8076   13.0294   31.4282 H      1210      M_A    0.0000
  12413 C          80.9644   14.1900   33.9375 C.3    1211      M_A    0.0000
  12414 C          79.8023   14.8024   33.4636 C.3    1211      M_A    0.0000
  12415 C          79.7245   16.1280   33.9191 C.2    1211      M_A    0.0000
  12416 N          78.7483   16.7932   33.4997 N.3    1211      M_A    0.0000
  12417 O          80.4431   16.6055   34.6285 O.2    1211      M_A    0.0000
  12418 H          80.8807   13.9191   34.8937 H      1211      M_A    0.0000
  12419 H          81.7284   14.8326   33.9015 H      1211      M_A    0.0000
  12420 H          78.9920   14.3299   33.8071 H      1211      M_A    0.0000
  12421 H          78.3879   16.5662   32.6788 H      1211      M_A    0.0000
  12422 H          78.7583   17.6916   33.7057 H      1211      M_A    0.0000
  12423 C          79.7275   14.7796   32.0098 C.3    1212      M_A    0.0000
  12424 C          80.4255   15.8288   31.4083 C.3    1212      M_A    0.0000
  12425 C          81.3048   16.4244   32.3263 C.2    1212      M_A    0.0000
  12426 N          82.0301   17.3405   31.8725 N.3    1212      M_A    0.0000
  12427 O          81.3798   16.1572   33.4083 O.2    1212      M_A    0.0000
  12428 H          80.0332   13.8896   31.6797 H      1212      M_A    0.0000
  12429 H          78.7573   14.8380   31.7793 H      1212      M_A    0.0000
  12430 H          79.7946   16.5422   31.1066 H      1212      M_A    0.0000
  12431 H          82.2481   17.3178   30.9740 H      1212      M_A    0.0000
  12432 H          82.6840   17.6525   32.4424 H      1212      M_A    0.0000
  12433 C          81.1672   15.3890   30.2352 C.3    1213      M_A    0.0000
  12434 C          82.1256   16.3133   29.8142 C.3    1213      M_A    0.0000
  12435 C          82.6854   16.9778   30.9168 C.2    1213      M_A    0.0000
  12436 N          83.6057   17.7881   30.6566 N.3    1213      M_A    0.0000
  12437 O          82.3563   16.8510   31.9767 O.2    1213      M_A    0.0000
  12438 H          81.5663   14.4932   30.4163 H      1213      M_A    0.0000
  12439 H          80.4906   15.2461   29.5145 H      1213      M_A    0.0000
  12440 H          81.7080   17.0125   29.2357 H      1213      M_A    0.0000
  12441 H          84.1176   17.6369   29.9013 H      1213      M_A    0.0000
  12442 H          84.0486   18.1379   31.3854 H      1213      M_A    0.0000
  12443 C          83.1822   15.6862   29.0330 C.3    1214      M_A    0.0000
  12444 C          84.3628   16.4316   29.0095 C.3    1214      M_A    0.0000
  12445 C          85.4805   15.5837   29.0596 C.2    1214      M_A    0.0000
  12446 N          86.5974   16.1471   28.9801 N.3    1214      M_A    0.0000
  12447 O          85.4388   14.4746   29.1854 O.2    1214      M_A    0.0000
  12448 H          83.3322   14.7592   29.3687 H      1214      M_A    0.0000
  12449 H          82.8226   15.5864   28.1065 H      1214      M_A    0.0000
  12450 H          84.4162   17.0290   29.8083 H      1214      M_A    0.0000
  12451 H          86.6482   16.9497   28.5234 H      1214      M_A    0.0000
  12452 H          87.3239   15.5855   28.8985 H      1214      M_A    0.0000
  12453 C          84.4471   17.2831   27.8315 C.3    1215      M_A    0.0000
  12454 C          85.7610   17.5688   27.4544 C.3    1215      M_A    0.0000
  12455 C          86.5863   16.4528   27.6640 C.2    1215      M_A    0.0000
  12456 N          87.7788   16.5790   27.2988 N.3    1215      M_A    0.0000
  12457 O          86.2626   15.4967   28.1424 O.2    1215      M_A    0.0000
  12458 H          83.9271   16.8678   27.0888 H      1215      M_A    0.0000
  12459 H          83.9665   18.1277   28.0626 H      1215      M_A    0.0000
  12460 H          86.1315   18.3117   28.0101 H      1215      M_A    0.0000
  12461 H          87.9619   17.1638   26.6061 H      1215      M_A    0.0000
  12462 H          88.2903   15.8128   27.3309 H      1215      M_A    0.0000
  12463 C          85.8503   17.9889   26.0633 C.3    1216      M_A    0.0000
  12464 C          86.6734   19.1016   25.8783 C.3    1216      M_A    0.0000
  12465 C          87.7548   19.0673   26.7728 C.2    1216      M_A    0.0000
  12466 N          88.5943   19.9901   26.6504 N.3    1216      M_A    0.0000
  12467 O          87.8974   18.3058   27.5774 O.2    1216      M_A    0.0000
  12468 H          86.1378   17.2144   25.5047 H      1216      M_A    0.0000
  12469 H          84.9178   18.2020   25.7756 H      1216      M_A    0.0000
  12470 H          86.1704   19.9445   26.0639 H      1216      M_A    0.0000
  12471 H          88.6986   20.3753   25.8161 H      1216      M_A    0.0000
  12472 H          89.3589   19.9052   27.1583 H      1216      M_A    0.0000
  12473 C          87.1707   19.1915   24.5129 C.3    1217      M_A    0.0000
  12474 C          87.0081   20.4601   23.9524 C.3    1217      M_A    0.0000
  12475 C          88.1734   20.8509   23.2742 C.2    1217      M_A    0.0000
  12476 N          88.1149   21.9518   22.6776 N.3    1217      M_A    0.0000
  12477 O          89.1279   20.2711   23.2529 O.2    1217      M_A    0.0000
  12478 H          88.1217   18.8919   24.4898 H      1217      M_A    0.0000
  12479 H          86.6586   18.5162   23.9843 H      1217      M_A    0.0000
  12480 H          86.8460   21.1404   24.6658 H      1217      M_A    0.0000
  12481 H          87.2889   22.2411   22.3786 H      1217      M_A    0.0000
  12482 H          88.8363   22.1547   22.1407 H      1217      M_A    0.0000
  12483 C          85.8720   20.5136   23.0436 C.3    1218      M_A    0.0000
  12484 C          86.1706   21.1332   21.8283 C.3    1218      M_A    0.0000
  12485 C          86.6770   22.4242   22.0462 C.2    1218      M_A    0.0000
  12486 N          87.0385   23.0493   21.0216 N.3    1218      M_A    0.0000
  12487 O          86.7541   22.9231   23.0427 O.2    1218      M_A    0.0000
  12488 H          85.5114   19.5927   22.9148 H      1218      M_A    0.0000
  12489 H          85.1569   21.0228   23.5202 H      1218      M_A    0.0000
  12490 H          85.3454   21.2353   21.2747 H      1218      M_A    0.0000
  12491 H          87.3253   22.5591   20.2917 H      1218      M_A    0.0000
  12492 H          87.4743   23.8474   21.1728 H      1218      M_A    0.0000
  12493 C          87.1215   20.3612   21.0413 C.3    1219      M_A    0.0000
  12494 C          87.6233   21.0639   19.9439 C.3    1219      M_A    0.0000
  12495 C          88.5588   22.0239   20.3609 C.2    1219      M_A    0.0000
  12496 N          89.1210   22.6717   19.4469 N.3    1219      M_A    0.0000
  12497 O          88.8088   22.2558   21.4246 O.2    1219      M_A    0.0000
  12498 H          87.8491   20.0308   21.6379 H      1219      M_A    0.0000
  12499 H          86.6318   19.5476   20.7313 H      1219      M_A    0.0000
  12500 H          86.8899   21.5570   19.4782 H      1219      M_A    0.0000
  12501 H          89.2136   22.2669   18.6205 H      1219      M_A    0.0000
  12502 H          89.8139   23.2188   19.7122 H      1219      M_A    0.0000
  12503 C          88.2348   20.1791   18.9626 C.3    1220      M_A    0.0000
  12504 C          89.3863   20.7156   18.3828 C.3    1220      M_A    0.0000
  12505 C          90.5324   20.2592   19.0527 C.2    1220      M_A    0.0000
  12506 N          91.6294   20.6307   18.5734 N.3    1220      M_A    0.0000
  12507 O          90.5278   19.6242   19.9717 O.2    1220      M_A    0.0000
  12508 H          88.4071   19.2916   19.3836 H      1220      M_A    0.0000
  12509 H          87.5419   20.0187   18.2612 H      1220      M_A    0.0000
  12510 H          89.3846   21.7118   18.4570 H      1220      M_A    0.0000
  12511 H          91.6681   20.8160   17.6682 H      1220      M_A    0.0000
  12512 H          92.3793   20.2412   18.9418 H      1220      M_A    0.0000
  12513 C          89.4858   20.3918   16.9668 C.3    1221      M_A    0.0000
  12514 C          89.9655   19.1016   16.7318 C.3    1221      M_A    0.0000
  12515 C          89.9521   18.3488   17.9166 C.2    1221      M_A    0.0000
  12516 N          90.3048   17.1510   17.8067 N.3    1221      M_A    0.0000
  12517 O          89.6777   18.7443   18.9246 O.2    1221      M_A    0.0000
  12518 H          88.6018   20.5468   16.5320 H      1221      M_A    0.0000
  12519 H          90.1075   21.0652   16.5695 H      1221      M_A    0.0000
  12520 H          90.9135   19.1317   16.4182 H      1221      M_A    0.0000
  12521 H          90.1728   16.7317   16.9930 H      1221      M_A    0.0000
  12522 H          90.1880   16.6290   18.5575 H      1221      M_A    0.0000
  12523 C          89.1966   18.4121   15.7056 C.3    1222      M_A    0.0000
  12524 C          88.7815   17.1371   16.0953 C.3    1222      M_A    0.0000
  12525 C          88.3895   17.1384   17.4433 C.2    1222      M_A    0.0000
  12526 N          87.9374   16.0545   17.8816 N.3    1222      M_A    0.0000
  12527 O          88.4743   18.0114   18.1349 O.2    1222      M_A    0.0000
  12528 H          88.4297   18.9865   15.4290 H      1222      M_A    0.0000
  12529 H          89.7922   18.3482   14.9062 H      1222      M_A    0.0000
  12530 H          89.5323   16.4833   16.0124 H      1222      M_A    0.0000
  12531 H          87.5278   15.4804   17.2833 H      1222      M_A    0.0000
  12532 H          87.5758   16.0854   18.7290 H      1222      M_A    0.0000
  12533 C          87.6897   16.6424   15.2689 C.3    1223      M_A    0.0000
  12534 C          88.0812   15.6277   14.3930 C.3    1223      M_A    0.0000
  12535 C          86.9592   14.9388   13.9058 C.2    1223      M_A    0.0000
  12536 N          87.1926   14.0444   13.0592 N.3    1223      M_A    0.0000
  12537 O          85.9059   15.1166   14.2325 O.2    1223      M_A    0.0000
  12538 H          86.9360   16.3582   15.8569 H      1223      M_A    0.0000
  12539 H          87.3522   17.4280   14.7526 H      1223      M_A    0.0000
  12540 H          88.6504   14.9566   14.8659 H      1223      M_A    0.0000
  12541 H          87.9447   14.1335   12.5285 H      1223      M_A    0.0000
  12542 H          86.4519   13.6716   12.6566 H      1223      M_A    0.0000
  12543 C          88.8624   16.1415   13.2770 C.3    1224      M_A    0.0000
  12544 C          88.2083   16.0224   12.0490 C.3    1224      M_A    0.0000
  12545 C          86.9088   16.5471   12.1313 C.2    1224      M_A    0.0000
  12546 N          86.2518   16.5486   11.0639 N.3    1224      M_A    0.0000
  12547 O          86.4299   16.9302   13.0650 O.2    1224      M_A    0.0000
  12548 H          89.1283   17.0832   13.4690 H      1224      M_A    0.0000
  12549 H          89.7111   15.6150   13.2646 H      1224      M_A    0.0000
  12550 H          88.1170   15.0613   11.7921 H      1224      M_A    0.0000
  12551 H          86.7178   16.5954   10.2664 H      1224      M_A    0.0000
  12552 H          85.4454   16.9945   11.0910 H      1224      M_A    0.0000
  12553 C          88.9364   16.6851   10.9765 C.3    1225      M_A    0.0000
  12554 C          89.1938   15.8474    9.8893 C.3    1225      M_A    0.0000
  12555 C          87.9978   15.5036    9.2396 C.2    1225      M_A    0.0000
  12556 N          88.1189   14.8025    8.2076 N.3    1225      M_A    0.0000
  12557 O          86.9748   15.7874    9.5871 O.2    1225      M_A    0.0000
  12558 H          88.4432   17.5084   10.7053 H      1225      M_A    0.0000
  12559 H          89.7959   17.0006   11.3759 H      1225      M_A    0.0000
  12560 H          89.6129   14.9940   10.1958 H      1225      M_A    0.0000
  12561 H          88.9025   14.8752    7.7219 H      1225      M_A    0.0000
  12562 H          87.3478   14.6726    7.7195 H      1225      M_A    0.0000
  12563 C          90.1105   16.4565    8.9362 C.3    1226      M_A    0.0000
  12564 C          90.6495   15.5398    8.0311 C.3    1226      M_A    0.0000
  12565 C          90.3425   14.2264    8.4202 C.2    1226      M_A    0.0000
  12566 N          90.7256   13.3223    7.6411 N.3    1226      M_A    0.0000
  12567 O          89.8148   13.9437    9.3633 O.2    1226      M_A    0.0000
  12568 H          89.6500   17.2109    8.4744 H      1226      M_A    0.0000
  12569 H          90.8403   16.8720    9.4772 H      1226      M_A    0.0000
  12570 H          91.6457   15.6109    8.0114 H      1226      M_A    0.0000
  12571 H          90.8110   13.5288    6.7437 H      1226      M_A    0.0000
  12572 H          90.4268   12.4724    7.8368 H      1226      M_A    0.0000
  12573 C          90.1767   15.7709    6.6737 C.3    1227      M_A    0.0000
  12574 C          89.1535   14.8999    6.2936 C.2    1227      M_A    0.0000
  12575 C          87.8992   15.4550    6.5924 C.2    1227      M_A    0.0000
  12576 N          86.9045   14.7815    6.2341 N.3    1227      M_A    0.0000
  12577 O          87.7369   16.4186    7.1337 O.2    1227      M_A    0.0000
  12578 H          89.9086   16.7267    6.5780 H      1227      M_A    0.0000
  12579 H          90.9688   15.6484    6.0775 H      1227      M_A    0.0000
  12580 H          89.2183   14.0410    6.7995 H      1227      M_A    0.0000
  12581 H          86.9985   14.2218    5.5039 H      1227      M_A    0.0000
  12582 H          86.0863   15.1959    6.3271 H      1227      M_A    0.0000
  12583 C          76.4614   43.5791   18.4736 C.2    1228      M_A    0.0000
  12584 C          75.7065   42.2505   18.6226 C.3    1228      M_A    0.0000
  12585 C          76.6980   41.0859   18.8302 C.2    1228      M_A    0.0000
  12586 N          76.1331   39.8475   19.0463 N.3    1228      M_A    0.0000
  12587 O          77.9215   41.1860   18.7906 O.2    1228      M_A    0.0000
  12588 H          76.5118   43.9081   17.4289 H      1228      M_A    0.0000
  12589 H          77.5028   43.4584   18.8012 H      1228      M_A    0.0000
  12590 H          75.1377   42.0259   17.7102 H      1228      M_A    0.0000
  12591 H          75.2115   39.8105   19.4745 H      1228      M_A    0.0000
  12592 H          76.7774   39.1093   19.3059 H      1228      M_A    0.0000
  12593 C          74.6596   42.2877   19.8330 C.3    1229      M_A    0.0000
  12594 C          75.2210   41.6964   21.1341 C.3    1229      M_A    0.0000
  12595 C          74.1159   41.7205   22.2630 C.2    1229      M_A    0.0000
  12596 N          74.4827   41.1386   23.4947 N.3    1229      M_A    0.0000
  12597 O          72.9743   42.2334   22.1445 O.2    1229      M_A    0.0000
  12598 H          74.3024   43.3154   19.9693 H      1229      M_A    0.0000
  12599 H          73.7874   41.7078   19.5025 H      1229      M_A    0.0000
  12600 H          76.0843   42.3111   21.5096 H      1229      M_A    0.0000
  12601 H          75.1976   40.3822   23.4850 H      1229      M_A    0.0000
  12602 H          73.7197   41.0392   24.1907 H      1229      M_A    0.0000
  12603 C          75.7702   40.1657   20.9338 C.3    1230      M_A    0.0000
  12604 C          75.2935   39.1859   22.0665 C.3    1230      M_A    0.0000
  12605 C          74.0592   39.7953   22.8418 C.2    1230      M_A    0.0000
  12606 N          73.4940   38.9742   23.8400 N.3    1230      M_A    0.0000
  12607 O          73.5801   40.9415   22.6488 O.2    1230      M_A    0.0000
  12608 H          75.4810   39.8005   19.9127 H      1230      M_A    0.0000
  12609 H          76.8924   40.2325   20.9302 H      1230      M_A    0.0000
  12610 H          76.1101   39.0310   22.8236 H      1230      M_A    0.0000
  12611 H          73.5805   37.9425   23.7321 H      1230      M_A    0.0000
  12612 H          72.6096   39.3186   24.2589 H      1230      M_A    0.0000
  12613 C          74.8980   37.7098   21.4752 C.3    1231      M_A    0.0000
  12614 C          76.1463   36.8785   21.0055 C.3    1231      M_A    0.0000
  12615 C          75.7292   35.3895   20.6815 C.2    1231      M_A    0.0000
  12616 N          76.7537   34.5593   20.1801 N.3    1231      M_A    0.0000
  12617 O          74.5829   34.9056   20.8616 O.2    1231      M_A    0.0000
  12618 H          74.2882   37.1577   22.2387 H      1231      M_A    0.0000
  12619 H          74.2092   37.8938   20.6060 H      1231      M_A    0.0000
  12620 H          76.9183   36.8307   21.8215 H      1231      M_A    0.0000
  12621 H          77.5316   35.0064   19.6524 H      1231      M_A    0.0000
  12622 H          76.4530   33.6236   19.8480 H      1231      M_A    0.0000
  12623 C          76.8703   37.5449   19.6954 C.3    1232      M_A    0.0000
  12624 C          76.5173   36.8072   18.3533 C.3    1232      M_A    0.0000
  12625 C          75.3776   35.7395   18.5921 C.2    1232      M_A    0.0000
  12626 N          74.9224   35.0588   17.4433 N.3    1232      M_A    0.0000
  12627 O          74.8843   35.4485   19.7113 O.2    1232      M_A    0.0000
  12628 H          76.6211   38.6384   19.6523 H      1232      M_A    0.0000
  12629 H          77.9769   37.4889   19.8854 H      1232      M_A    0.0000
  12630 H          77.4114   36.2482   17.9633 H      1232      M_A    0.0000
  12631 H          74.9928   35.5455   16.5260 H      1232      M_A    0.0000
  12632 H          74.0904   34.4539   17.5785 H      1232      M_A    0.0000
  12633 C          76.0541   37.8538   17.1807 C.3    1233      M_A    0.0000
  12634 C          75.2673   37.1604   16.0102 C.3    1233      M_A    0.0000
  12635 C          73.9160   37.9267   15.7219 C.2    1233      M_A    0.0000
  12636 N          73.1518   37.4397   14.6407 N.3    1233      M_A    0.0000
  12637 O          73.4797   38.8972   16.3914 O.2    1233      M_A    0.0000
  12638 H          75.4673   38.6910   17.6439 H      1233      M_A    0.0000
  12639 H          76.9974   38.3211   16.7861 H      1233      M_A    0.0000
  12640 H          74.9916   36.1070   16.2899 H      1233      M_A    0.0000
  12641 H          73.6525   36.9612   13.8637 H      1233      M_A    0.0000
  12642 H          72.3333   38.0175   14.3714 H      1233      M_A    0.0000
  12643 C          76.1569   37.0774   14.6367 C.3    1234      M_A    0.0000
  12644 C          75.8760   35.7790   13.7970 C.3    1234      M_A    0.0000
  12645 C          74.3529   35.7066   13.3832 C.2    1234      M_A    0.0000
  12646 N          73.9900   34.6178   12.5628 N.3    1234      M_A    0.0000
  12647 O          73.4661   36.5190   13.7495 O.2    1234      M_A    0.0000
  12648 H          75.9947   38.0108   14.0349 H      1234      M_A    0.0000
  12649 H          77.2339   37.1021   14.9581 H      1234      M_A    0.0000
  12650 H          76.0922   34.8599   14.4073 H      1234      M_A    0.0000
  12651 H          74.7169   34.2121   11.9379 H      1234      M_A    0.0000
  12652 H          73.0231   34.6397   12.1872 H      1234      M_A    0.0000
  12653 C          76.8150   35.6994   12.4566 C.3    1235      M_A    0.0000
  12654 C          77.6250   34.3568   12.3493 C.3    1235      M_A    0.0000
  12655 C          76.6464   33.1168   12.3759 C.2    1235      M_A    0.0000
  12656 N          77.2515   31.8527   12.2144 N.3    1235      M_A    0.0000
  12657 O          75.4034   33.1820   12.5528 O.2    1235      M_A    0.0000
  12658 H          76.1795   35.8808   11.5494 H      1235      M_A    0.0000
  12659 H          77.5221   36.5714   12.5161 H      1235      M_A    0.0000
  12660 H          78.3190   34.2436   13.2266 H      1235      M_A    0.0000
  12661 H          78.1398   31.8006   11.6744 H      1235      M_A    0.0000
  12662 H          76.6003   31.0526   12.1037 H      1235      M_A    0.0000
  12663 C          78.5464   34.3020   10.9955 C.3    1236      M_A    0.0000
  12664 C          80.0875   34.2498   11.2996 C.3    1236      M_A    0.0000
  12665 C          80.3622   33.4382   12.6270 C.2    1236      M_A    0.0000
  12666 N          81.7193   33.2603   12.9690 N.3    1236      M_A    0.0000
  12667 O          79.4740   32.9775   13.3882 O.2    1236      M_A    0.0000
  12668 H          78.2142   33.4404   10.3576 H      1236      M_A    0.0000
  12669 H          78.3011   35.2302   10.4107 H      1236      M_A    0.0000
  12670 H          80.4932   35.2858   11.4609 H      1236      M_A    0.0000
  12671 H          82.4204   33.2489   12.1999 H      1236      M_A    0.0000
  12672 H          81.9028   32.6219   13.7660 H      1236      M_A    0.0000
  12673 C          80.9351   33.5871   10.0638 C.3    1237      M_A    0.0000
  12674 C          82.4140   34.1121    9.9784 C.3    1237      M_A    0.0000
  12675 C          82.9136   34.5919   11.3984 C.2    1237      M_A    0.0000
  12676 N          84.2559   35.0207   11.4653 N.3    1237      M_A    0.0000
  12677 O          82.2039   34.6388   12.4352 O.2    1237      M_A    0.0000
  12678 H          80.8899   32.4685   10.1432 H      1237      M_A    0.0000
  12679 H          80.3783   33.8514    9.1236 H      1237      M_A    0.0000
  12680 H          82.4783   35.0007    9.2927 H      1237      M_A    0.0000
  12681 H          84.9335   34.6155   10.7870 H      1237      M_A    0.0000
  12682 H          84.6202   35.2132   12.4174 H      1237      M_A    0.0000
  12683 C          83.4365   32.9746    9.3906 C.3    1238      M_A    0.0000
  12684 C          84.6225   32.6465   10.3682 C.3    1238      M_A    0.0000
  12685 C          84.1500   32.7667   11.8710 C.2    1238      M_A    0.0000
  12686 N          85.1104   32.4256   12.8465 N.3    1238      M_A    0.0000
  12687 O          83.0149   33.1603   12.2414 O.2    1238      M_A    0.0000
  12688 H          82.8504   32.0572    9.1176 H      1238      M_A    0.0000
  12689 H          83.8375   33.3826    8.4228 H      1238      M_A    0.0000
  12690 H          85.4621   33.3813   10.2305 H      1238      M_A    0.0000
  12691 H          85.8474   31.7374   12.5881 H      1238      M_A    0.0000
  12692 H          84.7638   32.3809   13.8233 H      1238      M_A    0.0000
  12693 C          85.2411   31.1525   10.1034 C.3    1239      M_A    0.0000
  12694 C          86.2559   31.1085    8.9041 C.3    1239      M_A    0.0000
  12695 C          87.4094   32.1670    9.1164 C.2    1239      M_A    0.0000
  12696 N          88.4250   32.1741    8.1372 N.3    1239      M_A    0.0000
  12697 O          87.4637   32.9958   10.0601 O.2    1239      M_A    0.0000
  12698 H          85.6968   30.7679   11.0543 H      1239      M_A    0.0000
  12699 H          84.3640   30.4826    9.8898 H      1239      M_A    0.0000
  12700 H          85.7408   31.3760    7.9413 H      1239      M_A    0.0000
  12701 H          88.6226   31.2867    7.6305 H      1239      M_A    0.0000
  12702 H          89.2442   32.7768    8.3425 H      1239      M_A    0.0000
  12703 C          86.9065   29.6179    8.7047 C.3    1240      M_A    0.0000
  12704 C          87.1108   29.2307    7.1953 C.3    1240      M_A    0.0000
  12705 C          88.3092   28.2124    7.0427 C.2    1240      M_A    0.0000
  12706 N          88.5463   27.7334    5.7371 N.3    1240      M_A    0.0000
  12707 O          89.0583   27.8340    7.9787 O.2    1240      M_A    0.0000
  12708 H          87.8625   29.5512    9.2890 H      1240      M_A    0.0000
  12709 H          86.1961   28.8970    9.1939 H      1240      M_A    0.0000
  12710 H          87.3749   30.1387    6.5872 H      1240      M_A    0.0000
  12711 H          87.7418   27.6898    5.0781 H      1240      M_A    0.0000
  12712 H          89.2460   26.9715    5.6572 H      1240      M_A    0.0000
  12713 C          85.7549   28.5877    6.5373 C.3    1241      M_A    0.0000
  12714 C          86.0546   27.5647    5.3824 C.3    1241      M_A    0.0000
  12715 C          85.1042   26.3078    5.4964 C.2    1241      M_A    0.0000
  12716 N          85.2293   25.3476    4.4703 N.3    1241      M_A    0.0000
  12717 O          84.2871   26.1031    6.4295 O.2    1241      M_A    0.0000
  12718 H          85.1301   28.1322    7.3509 H      1241      M_A    0.0000
  12719 H          85.1580   29.4531    6.1392 H      1241      M_A    0.0000
  12720 H          87.1097   27.1837    5.4568 H      1241      M_A    0.0000
  12721 H          85.5525   25.6701    3.5350 H      1241      M_A    0.0000
  12722 H          84.5209   24.5897    4.4742 H      1241      M_A    0.0000
  12723 C          85.8913   28.2458    3.9011 C.3    1242      M_A    0.0000
  12724 C          86.5617   27.4025    2.7568 C.3    1242      M_A    0.0000
  12725 C          86.4032   28.1336    1.3653 C.2    1242      M_A    0.0000
  12726 N          87.0283   27.5069    0.2668 N.3    1242      M_A    0.0000
  12727 O          85.7526   29.1927    1.1765 O.2    1242      M_A    0.0000
  12728 H          84.8037   28.4371    3.7006 H      1242      M_A    0.0000
  12729 H          86.3748   29.2587    3.9660 H      1242      M_A    0.0000
  12730 H          86.0594   26.4015    2.6584 H      1242      M_A    0.0000
  12731 H          87.8674   26.9192    0.4511 H      1242      M_A    0.0000
  12732 H          87.0337   28.0490   -0.6177 H      1242      M_A    0.0000
  12733 C          88.1483   27.1187    3.0520 C.3    1243      M_A    0.0000
  12734 C          88.7917   26.1015    2.0414 C.3    1243      M_A    0.0000
  12735 C          88.2291   26.3386    0.5842 C.2    1243      M_A    0.0000
  12736 N          88.7862   25.5301   -0.4288 N.3    1243      M_A    0.0000
  12737 O          87.3251   27.1591    0.2843 O.2    1243      M_A    0.0000
  12738 H          88.7001   28.0958    3.0738 H      1243      M_A    0.0000
  12739 H          88.2051   26.7100    4.0977 H      1243      M_A    0.0000
  12740 H          88.5299   25.0453    2.3243 H      1243      M_A    0.0000
  12741 H          89.7588   25.1832   -0.2987 H      1243      M_A    0.0000
  12742 H          88.5119   25.7721   -1.3997 H      1243      M_A    0.0000
  12743 C          90.4269   26.2046    2.0237 C.3    1244      M_A    0.0000
  12744 C          91.1298   24.8212    1.7740 C.3    1244      M_A    0.0000
  12745 C          92.3347   24.9870    0.7657 C.2    1244      M_A    0.0000
  12746 N          93.0917   23.8230    0.5158 N.3    1244      M_A    0.0000
  12747 O          92.6360   26.0523    0.1700 O.2    1244      M_A    0.0000
  12748 H          90.7399   26.9771    1.2721 H      1244      M_A    0.0000
  12749 H          90.7269   26.6128    3.0273 H      1244      M_A    0.0000
  12750 H          90.4120   24.0924    1.3076 H      1244      M_A    0.0000
  12751 H          93.1358   23.0983    1.2616 H      1244      M_A    0.0000
  12752 H          93.9554   23.9589   -0.0428 H      1244      M_A    0.0000
  12753 C          91.6665   24.1449    3.1667 C.3    1245      M_A    0.0000
  12754 C          93.2170   24.3005    3.3708 C.3    1245      M_A    0.0000
  12755 C          93.5347   24.8016    4.8351 C.2    1245      M_A    0.0000
  12756 N          94.9021   24.9122    5.1638 N.3    1245      M_A    0.0000
  12757 O          92.6718   25.1231    5.6910 O.2    1245      M_A    0.0000
  12758 H          91.0845   24.5652    4.0294 H      1245      M_A    0.0000
  12759 H          91.3931   23.0558    3.1128 H      1245      M_A    0.0000
  12760 H          93.6325   25.0708    2.6652 H      1245      M_A    0.0000
  12761 H          95.5758   24.2903    4.6711 H      1245      M_A    0.0000
  12762 H          95.1108   25.1165    6.1594 H      1245      M_A    0.0000
  12763 C          94.0180   22.9005    3.0821 C.3    1246      M_A    0.0000
  12764 C          94.0373   22.5028    1.5618 C.3    1246      M_A    0.0000
  12765 C          95.3406   21.6765    1.2226 C.2    1246      M_A    0.0000
  12766 N          95.4388   21.1995   -0.1014 N.3    1246      M_A    0.0000
  12767 O          96.2791   21.4468    2.0269 O.2    1246      M_A    0.0000
  12768 H          95.0526   22.9719    3.5113 H      1246      M_A    0.0000
  12769 H          93.4909   22.1079    3.6803 H      1246      M_A    0.0000
  12770 H          94.0557   23.4214    0.9138 H      1246      M_A    0.0000
  12771 H          94.5565   21.0125   -0.6210 H      1246      M_A    0.0000
  12772 H          96.2274   20.5521   -0.2893 H      1246      M_A    0.0000
  12773 C          92.7116   21.6392    1.1360 C.3    1247      M_A    0.0000
  12774 C          93.0363   20.1412    0.7884 C.3    1247      M_A    0.0000
  12775 C          93.4432   19.3465    2.0918 C.2    1247      M_A    0.0000
  12776 N          93.6903   17.9683    1.9194 N.3    1247      M_A    0.0000
  12777 O          93.5818   19.8549    3.2333 O.2    1247      M_A    0.0000
  12778 H          91.9393   21.7250    1.9459 H      1247      M_A    0.0000
  12779 H          92.2746   22.1562    0.2385 H      1247      M_A    0.0000
  12780 H          93.9098   20.0803    0.0832 H      1247      M_A    0.0000
  12781 H          93.2002   17.4764    1.1441 H      1247      M_A    0.0000
  12782 H          93.8313   17.4237    2.7912 H      1247      M_A    0.0000
  12783 C          91.7745   19.3928    0.0586 C.3    1248      M_A    0.0000
  12784 C          90.7206   18.8254    1.0772 C.3    1248      M_A    0.0000
  12785 C          89.8939   20.0023    1.7309 C.2    1248      M_A    0.0000
  12786 N          88.8642   19.6139    2.6136 N.3    1248      M_A    0.0000
  12787 O          90.1066   21.2266    1.5400 O.2    1248      M_A    0.0000
  12788 H          91.3076   20.0945   -0.6825 H      1248      M_A    0.0000
  12789 H          92.2143   18.5540   -0.5470 H      1248      M_A    0.0000
  12790 H          91.2355   18.2829    1.9166 H      1248      M_A    0.0000
  12791 H          88.4167   18.6858    2.4655 H      1248      M_A    0.0000
  12792 H          88.2413   20.3758    2.9420 H      1248      M_A    0.0000
  12793 C          89.6963   17.7592    0.3709 C.3    1249      M_A    0.0000
  12794 C          88.3331   17.6117    1.1390 C.3    1249      M_A    0.0000
  12795 C          87.3031   16.7743    0.2821 C.2    1249      M_A    0.0000
  12796 N          86.0611   16.5122    0.8977 N.3    1249      M_A    0.0000
  12797 O          87.5050   16.3619   -0.8883 O.2    1249      M_A    0.0000
  12798 H          89.5448   18.0487   -0.7028 H      1249      M_A    0.0000
  12799 H          90.2348   16.7726    0.3503 H      1249      M_A    0.0000
  12800 H          87.8678   18.6200    1.3142 H      1249      M_A    0.0000
  12801 H          86.0303   16.4648    1.9370 H      1249      M_A    0.0000
  12802 H          85.4364   15.8575    0.3903 H      1249      M_A    0.0000
  12803 C          88.5279   16.9091    2.6064 C.3    1250      M_A    0.0000
  12804 C          87.2822   16.0627    3.0556 C.2    1250      M_A    0.0000
  12805 C          87.4361   14.5612    2.5888 C.2    1250      M_A    0.0000
  12806 N          86.4101   13.6827    2.9958 N.3    1250      M_A    0.0000
  12807 O          88.3735   14.1192    1.8770 O.2    1250      M_A    0.0000
  12808 H          89.4706   16.3001    2.6018 H      1250      M_A    0.0000
  12809 H          88.7065   17.7468    3.3345 H      1250      M_A    0.0000
  12810 H          86.3439   16.4579    2.5788 H      1250      M_A    0.0000
  12811 H          85.8976   13.9024    3.8747 H      1250      M_A    0.0000
  12812 H          86.5745   12.6771    2.8002 H      1250      M_A    0.0000
  12813 C          19.6912   79.5832   39.5297 C.2    1251      M_A    0.0000
  12814 C          20.7828   78.8947   39.6290 C.3    1251      M_A    0.0000
  12815 C          21.8100   79.6178   39.2898 C.2    1251      M_A    0.0000
  12816 N          22.8476   79.1070   39.4011 N.3    1251      M_A    0.0000
  12817 O          21.7608   80.5829   38.9178 O.2    1251      M_A    0.0000
  12818 H          19.1618   79.5038   40.2833 H      1251      M_A    0.0000
  12819 H          19.1795   79.2661   38.8262 H      1251      M_A    0.0000
  12820 H          20.7630   78.1695   39.0536 H      1251      M_A    0.0000
  12821 H          22.9339   78.4946   39.9948 H      1251      M_A    0.0000
  12822 H          23.5252   79.6134   39.2800 H      1251      M_A    0.0000
  12823 C          20.9623   78.4082   40.8749 C.3    1252      M_A    0.0000
  12824 C          20.5054   77.2061   41.0219 C.3    1252      M_A    0.0000
  12825 C          19.8001   76.8569   39.9857 C.2    1252      M_A    0.0000
  12826 N          19.3924   75.7689   39.9941 N.3    1252      M_A    0.0000
  12827 O          19.5684   77.4756   39.1885 O.2    1252      M_A    0.0000
  12828 H          21.8572   78.4684   41.0988 H      1252      M_A    0.0000
  12829 H          20.5191   78.9874   41.4453 H      1252      M_A    0.0000
  12830 H          19.9443   77.1593   41.7570 H      1252      M_A    0.0000
  12831 H          19.8330   75.1766   40.4300 H      1252      M_A    0.0000
  12832 H          19.0208   75.5065   39.2708 H      1252      M_A    0.0000
  12833 C          21.4947   76.3098   41.2200 C.3    1253      M_A    0.0000
  12834 C          21.1824   75.1145   40.8336 C.3    1253      M_A    0.0000
  12835 C          22.2543   74.4302   40.5578 C.2    1253      M_A    0.0000
  12836 N          22.0834   73.3212   40.2565 N.3    1253      M_A    0.0000
  12837 O          23.2189   74.8064   40.5688 O.2    1253      M_A    0.0000
  12838 H          22.2669   76.6145   40.8134 H      1253      M_A    0.0000
  12839 H          21.6688   76.3133   42.1293 H      1253      M_A    0.0000
  12840 H          20.6766   75.1453   40.0586 H      1253      M_A    0.0000
  12841 H          21.3894   72.9224   40.5635 H      1253      M_A    0.0000
  12842 H          22.7886   72.8451   40.1785 H      1253      M_A    0.0000
  12843 C          20.4513   74.4586   41.7590 C.3    1254      M_A    0.0000
  12844 C          20.1242   73.2609   41.3929 C.3    1254      M_A    0.0000
  12845 C          21.1865   72.5254   41.2390 C.2    1254      M_A    0.0000
  12846 N          20.9962   71.4120   40.9666 N.3    1254      M_A    0.0000
  12847 O          22.1613   72.8648   41.3202 O.2    1254      M_A    0.0000
  12848 H          20.9056   74.4627   42.5641 H      1254      M_A    0.0000
  12849 H          19.6898   74.9673   41.8953 H      1254      M_A    0.0000
  12850 H          19.6888   73.2784   40.5759 H      1254      M_A    0.0000
  12851 H          20.2624   71.0531   41.2266 H      1254      M_A    0.0000
  12852 H          21.6852   70.9066   40.9692 H      1254      M_A    0.0000
  12853 C          19.2894   72.6727   42.2751 C.3    1255      M_A    0.0000
  12854 C          19.2033   71.3909   42.1166 C.3    1255      M_A    0.0000
  12855 C          19.1195   70.7938   43.2696 C.2    1255      M_A    0.0000
  12856 N          18.9790   69.6410   43.2337 N.3    1255      M_A    0.0000
  12857 O          19.1896   71.2645   44.1892 O.2    1255      M_A    0.0000
  12858 H          19.5460   72.8990   43.1339 H      1255      M_A    0.0000
  12859 H          18.4601   73.0640   42.1472 H      1255      M_A    0.0000
  12860 H          19.9622   71.0635   41.6990 H      1255      M_A    0.0000
  12861 H          18.5894   69.3035   42.5488 H      1255      M_A    0.0000
  12862 H          18.8188   69.2634   43.9833 H      1255      M_A    0.0000
  12863 C          18.1480   71.0459   41.3495 C.3    1256      M_A    0.0000
  12864 C          17.7733   69.8191   41.5226 C.3    1256      M_A    0.0000
  12865 C          17.1218   69.3904   40.4810 C.2    1256      M_A    0.0000
  12866 N          16.7916   68.2768   40.5134 N.3    1256      M_A    0.0000
  12867 O          16.8680   69.9675   39.6597 O.2    1256      M_A    0.0000
  12868 H          17.4576   71.6429   41.4960 H      1256      M_A    0.0000
  12869 H          18.4127   71.1754   40.4717 H      1256      M_A    0.0000
  12870 H          17.1977   69.7540   42.2450 H      1256      M_A    0.0000
  12871 H          17.2613   67.7305   40.9779 H      1256      M_A    0.0000
  12872 H          16.4586   67.9676   39.7897 H      1256      M_A    0.0000
  12873 C          18.8177   69.0017   41.7722 C.3    1257      M_A    0.0000
  12874 C          18.4637   67.7745   41.9826 C.3    1257      M_A    0.0000
  12875 C          19.4919   67.0570   42.3306 C.2    1257      M_A    0.0000
  12876 N          19.2684   65.9490   42.5995 N.3    1257      M_A    0.0000
  12877 O          20.4700   67.3955   42.3610 O.2    1257      M_A    0.0000
  12878 H          19.4303   69.0723   41.0835 H      1257      M_A    0.0000
  12879 H          19.2396   69.3427   42.5225 H      1257      M_A    0.0000
  12880 H          18.1225   67.3975   41.2087 H      1257      M_A    0.0000
  12881 H          18.4908   65.7574   42.9054 H      1257      M_A    0.0000
  12882 H          19.9224   65.5079   42.9279 H      1257      M_A    0.0000
  12883 C          17.5042   67.6797   42.9268 C.3    1258      M_A    0.0000
  12884 C          17.5786   66.5887   43.6193 C.3    1258      M_A    0.0000
  12885 C          18.2414   66.7922   44.7204 C.2    1258      M_A    0.0000
  12886 N          18.3143   65.8849   45.4425 N.3    1258      M_A    0.0000
  12887 O          18.7119   67.6785   44.9758 O.2    1258      M_A    0.0000
  12888 H          17.5296   68.4325   43.4627 H      1258      M_A    0.0000
  12889 H          16.6951   67.7155   42.4781 H      1258      M_A    0.0000
  12890 H          18.0349   65.9351   43.1480 H      1258      M_A    0.0000
  12891 H          17.6844   65.3037   45.4245 H      1258      M_A    0.0000
  12892 H          18.6564   66.0471   46.2085 H      1258      M_A    0.0000
  12893 C          16.3588   66.0899   43.9099 C.3    1259      M_A    0.0000
  12894 C          16.3990   64.8740   44.3520 C.3    1259      M_A    0.0000
  12895 C          15.1999   64.4482   44.6239 C.2    1259      M_A    0.0000
  12896 N          15.1223   63.3429   44.9736 N.3    1259      M_A    0.0000
  12897 O          14.3392   65.0214   44.5706 O.2    1259      M_A    0.0000
  12898 H          15.9303   66.6587   44.4993 H      1259      M_A    0.0000
  12899 H          15.8708   66.1251   43.1239 H      1259      M_A    0.0000
  12900 H          16.8845   64.8303   45.1393 H      1259      M_A    0.0000
  12901 H          15.7200   62.7914   44.7025 H      1259      M_A    0.0000
  12902 H          14.3297   63.0330   45.0503 H      1259      M_A    0.0000
  12903 C          16.9896   64.0360   43.4744 C.3    1260      M_A    0.0000
  12904 C          17.9441   63.3383   44.0013 C.3    1260      M_A    0.0000
  12905 C          18.9858   64.0858   44.2232 C.2    1260      M_A    0.0000
  12906 N          19.8801   63.5642   44.7507 N.3    1260      M_A    0.0000
  12907 O          19.0733   65.0802   43.9482 O.2    1260      M_A    0.0000
  12908 H          16.3447   63.5013   43.0836 H      1260      M_A    0.0000
  12909 H          17.3241   64.5675   42.7941 H      1260      M_A    0.0000
  12910 H          18.2133   62.6671   43.4230 H      1260      M_A    0.0000
  12911 H          19.7122   62.9013   45.2677 H      1260      M_A    0.0000
  12912 H          20.5197   64.0775   44.9906 H      1260      M_A    0.0000
  12913 C          17.5605   62.7426   45.1498 C.3    1261      M_A    0.0000
  12914 C          17.5802   61.4501   45.0833 C.3    1261      M_A    0.0000
  12915 C          17.0026   61.0412   43.9913 C.2    1261      M_A    0.0000
  12916 N          17.0200   59.8939   43.8084 N.3    1261      M_A    0.0000
  12917 O          16.5243   61.6534   43.3068 O.2    1261      M_A    0.0000
  12918 H          18.0789   63.0615   45.8456 H      1261      M_A    0.0000
  12919 H          16.6995   63.0379   45.3195 H      1261      M_A    0.0000
  12920 H          17.1099   61.0810   45.7903 H      1261      M_A    0.0000
  12921 H          17.6661   59.4419   44.1447 H      1261      M_A    0.0000
  12922 H          16.7360   59.6358   43.0449 H      1261      M_A    0.0000
  12923 C          18.8361   60.9597   45.1428 C.3    1262      M_A    0.0000
  12924 C          19.0105   60.1259   46.1174 C.3    1262      M_A    0.0000
  12925 C          18.2323   60.4239   47.1168 C.2    1262      M_A    0.0000
  12926 N          18.2710   59.6975   48.0228 N.3    1262      M_A    0.0000
  12927 O          17.6155   61.2544   47.1628 O.2    1262      M_A    0.0000
  12928 H          19.0565   60.5882   44.3256 H      1262      M_A    0.0000
  12929 H          19.3946   61.6907   45.2477 H      1262      M_A    0.0000
  12930 H          19.8803   60.1706   46.4317 H      1262      M_A    0.0000
  12931 H          18.4822   58.8799   47.8751 H      1262      M_A    0.0000
  12932 H          17.6866   59.8324   48.6315 H      1262      M_A    0.0000
  12933 C          18.7910   58.8499   45.7367 C.3    1263      M_A    0.0000
  12934 C          18.0792   58.1813   46.5863 C.2    1263      M_A    0.0000
  12935 C          16.8147   58.2736   46.2937 C.2    1263      M_A    0.0000
  12936 N          16.0934   57.6580   46.9651 N.3    1263      M_A    0.0000
  12937 O          16.4210   58.8602   45.5367 O.2    1263      M_A    0.0000
  12938 H          18.4167   58.8450   44.8915 H      1263      M_A    0.0000
  12939 H          19.6257   58.4596   45.6463 H      1263      M_A    0.0000
  12940 H          18.1833   58.5256   47.4395 H      1263      M_A    0.0000
  12941 H          16.3955   56.9455   47.3339 H      1263      M_A    0.0000
  12942 H          15.2784   57.6344   46.7096 H      1263      M_A    0.0000
  12943 C          53.7356   90.3233   36.3210 C.2    1264      M_A    0.0000
  12944 C          52.5777   90.4636   35.3225 C.3    1264      M_A    0.0000
  12945 C          51.2228   90.4587   36.0618 C.2    1264      M_A    0.0000
  12946 N          50.1081   90.6488   35.2740 N.3    1264      M_A    0.0000
  12947 O          51.0784   90.2759   37.2677 O.2    1264      M_A    0.0000
  12948 H          53.8029   91.1850   36.9958 H      1264      M_A    0.0000
  12949 H          54.6928   90.2871   35.7837 H      1264      M_A    0.0000
  12950 H          52.5640   89.6142   34.6263 H      1264      M_A    0.0000
  12951 H          50.2147   91.1834   34.4156 H      1264      M_A    0.0000
  12952 H          49.2334   90.7703   35.7715 H      1264      M_A    0.0000
  12953 C          52.7041   91.7934   34.4402 C.3    1265      M_A    0.0000
  12954 C          54.1292   92.0425   33.9259 C.3    1265      M_A    0.0000
  12955 C          54.5452   90.9385   32.9306 C.2    1265      M_A    0.0000
  12956 N          55.7837   91.0926   32.3460 N.3    1265      M_A    0.0000
  12957 O          53.8731   89.9482   32.6548 O.2    1265      M_A    0.0000
  12958 H          51.9734   91.7551   33.6236 H      1265      M_A    0.0000
  12959 H          52.3880   92.6224   35.0876 H      1265      M_A    0.0000
  12960 H          54.8490   92.0120   34.7548 H      1265      M_A    0.0000
  12961 H          56.1468   92.0362   32.2367 H      1265      M_A    0.0000
  12962 H          56.0039   90.4393   31.6031 H      1265      M_A    0.0000
  12963 C          54.2735   93.4766   33.2294 C.3    1266      M_A    0.0000
  12964 C          55.5004   93.5807   32.3122 C.3    1266      M_A    0.0000
  12965 C          55.2590   92.8095   30.9971 C.2    1266      M_A    0.0000
  12966 N          56.2675   92.8884   30.0609 N.3    1266      M_A    0.0000
  12967 O          54.2662   92.1299   30.7504 O.2    1266      M_A    0.0000
  12968 H          53.3434   93.7157   32.7002 H      1266      M_A    0.0000
  12969 H          54.3513   94.2076   34.0454 H      1266      M_A    0.0000
  12970 H          56.3790   93.1274   32.7907 H      1266      M_A    0.0000
  12971 H          56.8565   93.7173   30.0613 H      1266      M_A    0.0000
  12972 H          56.0575   92.4887   29.1535 H      1266      M_A    0.0000
  12973 C          55.8759   95.1015   31.9827 C.3    1267      M_A    0.0000
  12974 C          56.7884   95.2452   30.7563 C.3    1267      M_A    0.0000
  12975 C          56.9298   96.7299   30.3587 C.2    1267      M_A    0.0000
  12976 N          57.7839   96.9918   29.3092 N.3    1267      M_A    0.0000
  12977 O          56.3276   97.6614   30.8861 O.2    1267      M_A    0.0000
  12978 H          54.9541   95.6863   31.8797 H      1267      M_A    0.0000
  12979 H          56.3818   95.4931   32.8754 H      1267      M_A    0.0000
  12980 H          56.3568   94.7234   29.8915 H      1267      M_A    0.0000
  12981 H          58.5550   96.3488   29.1483 H      1267      M_A    0.0000
  12982 H          57.9728   97.9714   29.1299 H      1267      M_A    0.0000
  12983 C          58.2383   94.6160   31.0103 C.3    1268      M_A    0.0000
  12984 C          58.9751   94.2559   29.7123 C.3    1268      M_A    0.0000
  12985 C          59.3978   95.5346   28.9582 C.2    1268      M_A    0.0000
  12986 N          60.1310   95.3386   27.8077 N.3    1268      M_A    0.0000
  12987 O          59.1087   96.6798   29.2949 O.2    1268      M_A    0.0000
  12988 H          58.8226   95.2989   31.6386 H      1268      M_A    0.0000
  12989 H          58.0795   93.7131   31.6151 H      1268      M_A    0.0000
  12990 H          58.3160   93.6918   29.0387 H      1268      M_A    0.0000
  12991 H          60.7015   94.4995   27.7414 H      1268      M_A    0.0000
  12992 H          60.5137   96.1752   27.3822 H      1268      M_A    0.0000
  12993 C          60.2613   93.3430   29.9860 C.3    1269      M_A    0.0000
  12994 C          60.3439   92.1235   29.0569 C.3    1269      M_A    0.0000
  12995 C          61.7813   91.5619   29.0286 C.2    1269      M_A    0.0000
  12996 N          61.9651   90.4196   28.2798 N.3    1269      M_A    0.0000
  12997 O          62.7473   92.0682   29.5934 O.2    1269      M_A    0.0000
  12998 H          61.1631   93.9643   29.9296 H      1269      M_A    0.0000
  12999 H          60.1877   93.0146   31.0315 H      1269      M_A    0.0000
  13000 H          60.0920   92.4066   28.0259 H      1269      M_A    0.0000
  13001 H          61.1737   89.7918   28.1631 H      1269      M_A    0.0000
  13002 H          62.8756   89.9818   28.3615 H      1269      M_A    0.0000
  13003 C          59.3237   90.9686   29.4906 C.3    1270      M_A    0.0000
  13004 C          59.9874   89.5885   29.6018 C.3    1270      M_A    0.0000
  13005 C          61.4839   89.7349   29.9503 C.2    1270      M_A    0.0000
  13006 N          62.1730   88.5574   30.1454 N.3    1270      M_A    0.0000
  13007 O          62.0866   90.8016   30.0369 O.2    1270      M_A    0.0000
  13008 H          58.8237   91.2603   30.4219 H      1270      M_A    0.0000
  13009 H          58.5393   90.9475   28.7222 H      1270      M_A    0.0000
  13010 H          59.9342   89.0568   28.6422 H      1270      M_A    0.0000
  13011 H          61.6530   87.7480   30.4749 H      1270      M_A    0.0000
  13012 H          63.1194   88.6544   30.4952 H      1270      M_A    0.0000
  13013 C          59.2690   88.6636   30.6931 C.3    1271      M_A    0.0000
  13014 C          59.1292   87.2013   30.2461 C.3    1271      M_A    0.0000
  13015 C          59.5610   86.2462   31.3792 C.2    1271      M_A    0.0000
  13016 N          59.4133   84.9008   31.1194 N.3    1271      M_A    0.0000
  13017 O          60.0373   86.5985   32.4551 O.2    1271      M_A    0.0000
  13018 H          59.8012   88.7523   31.6476 H      1271      M_A    0.0000
  13019 H          58.2760   89.1017   30.8610 H      1271      M_A    0.0000
  13020 H          59.7847   86.9959   29.3891 H      1271      M_A    0.0000
  13021 H          58.6872   84.6167   30.4666 H      1271      M_A    0.0000
  13022 H          59.5775   84.2806   31.9041 H      1271      M_A    0.0000
  13023 C          57.6347   86.8537   29.7900 C.3    1272      M_A    0.0000
  13024 C          56.7714   86.2935   30.9295 C.3    1272      M_A    0.0000
  13025 C          57.6630   85.7567   32.0693 C.2    1272      M_A    0.0000
  13026 N          56.9982   85.2896   33.1826 N.3    1272      M_A    0.0000
  13027 O          58.8894   85.6978   32.0370 O.2    1272      M_A    0.0000
  13028 H          57.1827   87.7404   29.3298 H      1272      M_A    0.0000
  13029 H          57.7241   86.1106   28.9862 H      1272      M_A    0.0000
  13030 H          56.1652   85.4492   30.5745 H      1272      M_A    0.0000
  13031 H          56.0866   85.6862   33.3965 H      1272      M_A    0.0000
  13032 H          57.5819   85.0546   33.9771 H      1272      M_A    0.0000
  13033 C          55.7588   87.3894   31.5094 C.3    1273      M_A    0.0000
  13034 C          54.3587   86.8265   31.7927 C.3    1273      M_A    0.0000
  13035 C          53.6170   86.5322   30.4715 C.2    1273      M_A    0.0000
  13036 N          52.3713   85.9561   30.5975 N.3    1273      M_A    0.0000
  13037 O          54.0434   86.7946   29.3500 O.2    1273      M_A    0.0000
  13038 H          56.2018   87.8554   32.3976 H      1273      M_A    0.0000
  13039 H          55.6987   88.1828   30.7523 H      1273      M_A    0.0000
  13040 H          53.7525   87.5593   32.3421 H      1273      M_A    0.0000
  13041 H          52.1898   85.3842   31.4185 H      1273      M_A    0.0000
  13042 H          51.9391   85.6492   29.7336 H      1273      M_A    0.0000
  13043 C          54.4152   85.4986   32.6850 C.3    1274      M_A    0.0000
  13044 C          53.1484   84.6391   32.5678 C.3    1274      M_A    0.0000
  13045 C          53.5056   83.1388   32.6302 C.2    1274      M_A    0.0000
  13046 N          52.4392   82.2660   32.6045 N.3    1274      M_A    0.0000
  13047 O          54.6468   82.6869   32.6741 O.2    1274      M_A    0.0000
  13048 H          55.3202   84.9331   32.4331 H      1274      M_A    0.0000
  13049 H          54.5485   85.8318   33.7230 H      1274      M_A    0.0000
  13050 H          52.6551   84.8093   31.6013 H      1274      M_A    0.0000
  13051 H          51.5472   82.5900   32.9699 H      1274      M_A    0.0000
  13052 H          52.6640   81.2918   32.7708 H      1274      M_A    0.0000
  13053 C          52.0806   84.9856   33.7089 C.3    1275      M_A    0.0000
  13054 C          50.9820   83.9222   33.8495 C.3    1275      M_A    0.0000
  13055 C          50.1793   83.7975   32.5371 C.2    1275      M_A    0.0000
  13056 N          49.2063   82.8216   32.5186 N.3    1275      M_A    0.0000
  13057 O          50.3313   84.5088   31.5473 O.2    1275      M_A    0.0000
  13058 H          52.6072   85.1598   34.6547 H      1275      M_A    0.0000
  13059 H          51.6360   85.9506   33.4305 H      1275      M_A    0.0000
  13060 H          50.2679   84.2071   34.6339 H      1275      M_A    0.0000
  13061 H          49.3352   82.0066   33.1128 H      1275      M_A    0.0000
  13062 H          48.7665   82.6559   31.6206 H      1275      M_A    0.0000
  13063 C          51.5788   82.4927   34.2528 C.3    1276      M_A    0.0000
  13064 C          50.6473   81.3268   33.8918 C.3    1276      M_A    0.0000
  13065 C          49.5240   81.8050   32.9473 C.2    1276      M_A    0.0000
  13066 N          48.6619   80.8285   32.4968 N.3    1276      M_A    0.0000
  13067 O          49.3406   82.9695   32.6029 O.2    1276      M_A    0.0000
  13068 H          52.5732   82.3778   33.8052 H      1276      M_A    0.0000
  13069 H          51.7399   82.5225   35.3388 H      1276      M_A    0.0000
  13070 H          50.1591   80.9303   34.7923 H      1276      M_A    0.0000
  13071 H          49.0127   79.8768   32.4255 H      1276      M_A    0.0000
  13072 H          48.0043   81.1181   31.7820 H      1276      M_A    0.0000
  13073 C          51.4404   80.1131   33.2131 C.3    1277      M_A    0.0000
  13074 C          50.5861   78.8469   33.0569 C.3    1277      M_A    0.0000
  13075 C          49.8351   78.8645   31.7086 C.2    1277      M_A    0.0000
  13076 N          49.0865   77.7430   31.4234 N.3    1277      M_A    0.0000
  13077 O          49.8421   79.7975   30.9098 O.2    1277      M_A    0.0000
  13078 H          51.8595   80.4465   32.2563 H      1277      M_A    0.0000
  13079 H          52.3016   79.9076   33.8630 H      1277      M_A    0.0000
  13080 H          49.8235   78.7968   33.8458 H      1277      M_A    0.0000
  13081 H          49.3784   76.8574   31.8291 H      1277      M_A    0.0000
  13082 H          48.6963   77.7005   30.4889 H      1277      M_A    0.0000
  13083 C          51.4647   77.5132   33.1658 C.3    1278      M_A    0.0000
  13084 C          51.5413   76.7323   31.8460 C.3    1278      M_A    0.0000
  13085 C          52.9255   76.0671   31.6913 C.2    1278      M_A    0.0000
  13086 N          53.0909   75.2780   30.5735 N.3    1278      M_A    0.0000
  13087 O          53.8683   76.2129   32.4649 O.2    1278      M_A    0.0000
  13088 H          52.4593   77.7671   33.5513 H      1278      M_A    0.0000
  13089 H          50.9908   76.8959   33.9407 H      1278      M_A    0.0000
  13090 H          51.4155   77.4089   30.9900 H      1278      M_A    0.0000
  13091 H          52.2676   74.8323   30.1766 H      1278      M_A    0.0000
  13092 H          53.9514   74.7436   30.5357 H      1278      M_A    0.0000
  13093 C          50.3951   75.6200   31.7397 C.3    1279      M_A    0.0000
  13094 C          50.9182   74.2594   31.2575 C.3    1279      M_A    0.0000
  13095 C          52.3550   74.3958   30.7103 C.2    1279      M_A    0.0000
  13096 N          52.9591   73.2235   30.3102 N.3    1279      M_A    0.0000
  13097 O          52.9656   75.4546   30.5889 O.2    1279      M_A    0.0000
  13098 H          49.8769   75.5430   32.7029 H      1279      M_A    0.0000
  13099 H          49.6534   76.0104   31.0299 H      1279      M_A    0.0000
  13100 H          50.2988   73.8779   30.4346 H      1279      M_A    0.0000
  13101 H          52.6678   72.3583   30.7582 H      1279      M_A    0.0000
  13102 H          53.9412   73.2945   30.0697 H      1279      M_A    0.0000
  13103 C          50.8875   73.1587   32.4194 C.3    1280      M_A    0.0000
  13104 C          52.1266   73.3074   32.8873 C.3    1280      M_A    0.0000
  13105 C          52.9036   72.2913   32.4887 C.2    1280      M_A    0.0000
  13106 N          54.0550   72.3600   32.8060 N.3    1280      M_A    0.0000
  13107 O          52.5659   71.4405   31.9421 O.2    1280      M_A    0.0000
  13108 H          50.2309   73.3600   33.0784 H      1280      M_A    0.0000
  13109 H          50.7390   72.2500   32.1724 H      1280      M_A    0.0000
  13110 H          52.1275   73.2988   33.8406 H      1280      M_A    0.0000
  13111 H          54.4056   73.1612   32.9250 H      1280      M_A    0.0000
  13112 H          54.5849   71.7521   32.4543 H      1280      M_A    0.0000
  13113 C          52.6926   74.5122   32.4888 C.3    1281      M_A    0.0000
  13114 C          53.9650   74.6418   32.8635 C.3    1281      M_A    0.0000
  13115 C          54.7688   73.9552   32.0403 C.2    1281      M_A    0.0000
  13116 N          55.9416   74.0548   32.2540 N.3    1281      M_A    0.0000
  13117 O          54.4378   73.3273   31.2449 O.2    1281      M_A    0.0000
  13118 H          52.5858   74.6122   31.5483 H      1281      M_A    0.0000
  13119 H          52.1641   75.1991   32.8858 H      1281      M_A    0.0000
  13120 H          54.0944   74.2846   33.7379 H      1281      M_A    0.0000
  13121 H          56.2325   74.7955   32.6358 H      1281      M_A    0.0000
  13122 H          56.4715   73.6942   31.6514 H      1281      M_A    0.0000
  13123 C          54.3634   75.9724   32.9024 C.3    1282      M_A    0.0000
  13124 C          55.1163   76.2624   33.9632 C.3    1282      M_A    0.0000
  13125 C          55.9809   77.2433   33.6707 C.2    1282      M_A    0.0000
  13126 N          56.6654   77.6218   34.5759 N.3    1282      M_A    0.0000
  13127 O          56.1087   77.6790   32.7062 O.2    1282      M_A    0.0000
  13128 H          54.7986   76.1929   32.0852 H      1282      M_A    0.0000
  13129 H          53.5629   76.4898   32.9194 H      1282      M_A    0.0000
  13130 H          55.6344   75.5054   34.2228 H      1282      M_A    0.0000
  13131 H          56.3486   77.5451   35.3961 H      1282      M_A    0.0000
  13132 H          57.1535   78.3354   34.4130 H      1282      M_A    0.0000
  13133 C          54.3489   76.6288   35.0620 C.3    1283      M_A    0.0000
  13134 C          54.5482   77.8906   35.4422 C.3    1283      M_A    0.0000
  13135 C          55.7134   78.3464   34.9632 C.2    1283      M_A    0.0000
  13136 N          55.9605   79.4932   35.1978 N.3    1283      M_A    0.0000
  13137 O          56.4227   77.7631   34.4217 O.2    1283      M_A    0.0000
  13138 H          53.4322   76.4529   34.8762 H      1283      M_A    0.0000
  13139 H          54.5910   76.0338   35.7664 H      1283      M_A    0.0000
  13140 H          54.5976   77.9498   36.3925 H      1283      M_A    0.0000
  13141 H          55.2841   80.0488   35.3108 H      1283      M_A    0.0000
  13142 H          56.6697   79.8213   34.7935 H      1283      M_A    0.0000
  13143 C          53.5163   78.7267   35.0337 C.3    1284      M_A    0.0000
  13144 C          53.6011   79.9528   35.5492 C.3    1284      M_A    0.0000
  13145 C          53.3711   79.9238   36.8687 C.2    1284      M_A    0.0000
  13146 N          53.4830   80.9688   37.4404 N.3    1284      M_A    0.0000
  13147 O          53.0818   79.0589   37.4207 O.2    1284      M_A    0.0000
  13148 H          53.4832   78.7412   34.0826 H      1284      M_A    0.0000
  13149 H          52.7073   78.3092   35.3165 H      1284      M_A    0.0000
  13150 H          52.9405   80.5233   35.1657 H      1284      M_A    0.0000
  13151 H          54.0353   81.5692   37.1034 H      1284      M_A    0.0000
  13152 H          53.4393   80.9303   38.3183 H      1284      M_A    0.0000
  13153 C          54.8378   80.5366   35.3035 C.3    1285      M_A    0.0000
  13154 C          55.7079   80.3571   36.2970 C.3    1285      M_A    0.0000
  13155 C          55.8599   79.0516   36.5572 C.2    1285      M_A    0.0000
  13156 N          56.6682   78.7779   37.3955 N.3    1285      M_A    0.0000
  13157 O          55.3068   78.2667   36.0939 O.2    1285      M_A    0.0000
  13158 H          55.1748   80.2180   34.4724 H      1285      M_A    0.0000
  13159 H          54.6730   81.4672   35.1785 H      1285      M_A    0.0000
  13160 H          55.3893   80.7635   37.0983 H      1285      M_A    0.0000
  13161 H          57.3445   79.3320   37.5167 H      1285      M_A    0.0000
  13162 H          56.8460   77.9214   37.4893 H      1285      M_A    0.0000
  13163 C          56.9447   80.9240   36.0149 C.3    1286      M_A    0.0000
  13164 C          57.4029   81.6968   36.9992 C.3    1286      M_A    0.0000
  13165 C          56.3903   82.1471   37.7522 C.2    1286      M_A    0.0000
  13166 N          56.6997   82.8040   38.7030 N.3    1286      M_A    0.0000
  13167 O          55.3568   81.9806   37.5508 O.2    1286      M_A    0.0000
  13168 H          57.5602   80.2348   35.7866 H      1286      M_A    0.0000
  13169 H          56.8264   81.4409   35.2226 H      1286      M_A    0.0000
  13170 H          57.8459   82.4629   36.6446 H      1286      M_A    0.0000
  13171 H          57.4890   82.6570   39.0699 H      1286      M_A    0.0000
  13172 H          56.0461   83.0075   39.2555 H      1286      M_A    0.0000
  13173 C          58.3201   81.0291   37.8015 C.3    1287      M_A    0.0000
  13174 C          59.2989   81.8174   38.2450 C.3    1287      M_A    0.0000
  13175 C          59.1096   82.1191   39.5365 C.2    1287      M_A    0.0000
  13176 N          59.9678   82.7758   40.0497 N.3    1287      M_A    0.0000
  13177 O          58.2573   81.8380   40.1121 O.2    1287      M_A    0.0000
  13178 H          57.8582   80.5990   38.5139 H      1287      M_A    0.0000
  13179 H          58.6828   80.3289   37.2657 H      1287      M_A    0.0000
  13180 H          59.3070   82.6421   37.7666 H      1287      M_A    0.0000
  13181 H          60.7875   82.7113   39.7289 H      1287      M_A    0.0000
  13182 H          59.8983   82.8818   40.9203 H      1287      M_A    0.0000
  13183 C          60.5505   81.2368   38.0798 C.3    1288      M_A    0.0000
  13184 C          61.3132   81.8798   37.1961 C.3    1288      M_A    0.0000
  13185 C          62.4982   82.1914   37.7381 C.2    1288      M_A    0.0000
  13186 N          63.2833   82.7198   37.0063 N.3    1288      M_A    0.0000
  13187 O          62.7690   82.0233   38.7554 O.2    1288      M_A    0.0000
  13188 H          60.9747   81.1608   38.9284 H      1288      M_A    0.0000
  13189 H          60.3931   80.3436   37.7860 H      1288      M_A    0.0000
  13190 H          60.9039   82.7004   36.9354 H      1288      M_A    0.0000
  13191 H          63.2267   82.5473   36.1425 H      1288      M_A    0.0000
  13192 H          64.0949   82.8254   37.3291 H      1288      M_A    0.0000
  13193 C          61.5102   81.1356   36.0393 C.3    1289      M_A    0.0000
  13194 C          62.3675   81.7034   35.1914 C.3    1289      M_A    0.0000
  13195 C          62.5264   80.9389   34.1028 C.2    1289      M_A    0.0000
  13196 N          63.2327   81.3887   33.2484 N.3    1289      M_A    0.0000
  13197 O          62.0939   79.9744   33.9638 O.2    1289      M_A    0.0000
  13198 H          61.7750   80.2527   36.2764 H      1289      M_A    0.0000
  13199 H          60.6541   81.0497   35.6288 H      1289      M_A    0.0000
  13200 H          63.2268   81.7930   35.5944 H      1289      M_A    0.0000
  13201 H          63.2966   82.2666   33.1823 H      1289      M_A    0.0000
  13202 H          63.2506   80.9397   32.4921 H      1289      M_A    0.0000
  13203 C          61.9590   82.9763   34.8124 C.3    1290      M_A    0.0000
  13204 C          62.5769   83.9464   35.4858 C.3    1290      M_A    0.0000
  13205 C          63.0413   83.4839   36.6543 C.2    1290      M_A    0.0000
  13206 N          63.6673   84.2632   37.3116 N.3    1290      M_A    0.0000
  13207 O          62.8742   82.5017   37.0337 O.2    1290      M_A    0.0000
  13208 H          62.0654   83.0719   33.8714 H      1290      M_A    0.0000
  13209 H          61.0203   83.0140   34.9739 H      1290      M_A    0.0000
  13210 H          61.9689   84.6519   35.6895 H      1290      M_A    0.0000
  13211 H          64.0990   84.9081   36.8912 H      1290      M_A    0.0000
  13212 H          64.0626   83.9310   38.0239 H      1290      M_A    0.0000
  13213 C          63.6201   84.5036   34.7565 C.3    1291      M_A    0.0000
  13214 C          64.5106   83.6019   34.3442 C.3    1291      M_A    0.0000
  13215 C          65.4263   84.1752   33.5518 C.2    1291      M_A    0.0000
  13216 N          66.3094   83.4616   33.1747 N.3    1291      M_A    0.0000
  13217 O          65.4058   85.1907   33.2280 O.2    1291      M_A    0.0000
  13218 H          63.2619   85.0078   34.0330 H      1291      M_A    0.0000
  13219 H          64.0397   85.1366   35.3328 H      1291      M_A    0.0000
  13220 H          64.0847   82.9227   33.8283 H      1291      M_A    0.0000
  13221 H          66.5352   82.7764   33.6832 H      1291      M_A    0.0000
  13222 H          66.9660   83.8607   32.7462 H      1291      M_A    0.0000
  13223 C          65.1434   82.9707   35.4081 C.3    1292      M_A    0.0000
  13224 C          65.6182   81.7656   35.0942 C.3    1292      M_A    0.0000
  13225 C          66.0529   81.1322   36.1919 C.2    1292      M_A    0.0000
  13226 N          66.4451   80.0140   36.0275 N.3    1292      M_A    0.0000
  13227 O          66.0906   81.5569   37.1690 O.2    1292      M_A    0.0000
  13228 H          65.8217   83.5426   35.7527 H      1292      M_A    0.0000
  13229 H          64.4909   82.8944   36.0989 H      1292      M_A    0.0000
  13230 H          66.3643   81.8428   34.5057 H      1292      M_A    0.0000
  13231 H          66.1074   79.5501   35.3569 H      1292      M_A    0.0000
  13232 H          66.6277   79.5619   36.7599 H      1292      M_A    0.0000
  13233 C          64.6681   80.9834   34.4492 C.3    1293      M_A    0.0000
  13234 C          65.2039   80.0118   33.7108 C.3    1293      M_A    0.0000
  13235 C          66.0354   79.2651   34.4499 C.2    1293      M_A    0.0000
  13236 N          66.5247   78.3252   33.8947 N.3    1293      M_A    0.0000
  13237 O          66.2975   79.4628   35.4642 O.2    1293      M_A    0.0000
  13238 H          64.0528   80.6449   35.0917 H      1293      M_A    0.0000
  13239 H          64.1671   81.5756   33.8951 H      1293      M_A    0.0000
  13240 H          65.7209   80.3790   32.9989 H      1293      M_A    0.0000
  13241 H          66.0768   77.9568   33.2293 H      1293      M_A    0.0000
  13242 H          66.9826   77.7753   34.4065 H      1293      M_A    0.0000
  13243 C          64.2342   79.2000   33.1353 C.3    1294      M_A    0.0000
  13244 C          63.7440   79.6953   31.9992 C.3    1294      M_A    0.0000
  13245 C          63.2524   80.9257   32.1974 C.2    1294      M_A    0.0000
  13246 N          62.8408   81.4857   31.2236 N.3    1294      M_A    0.0000
  13247 O          63.1865   81.4134   33.1431 O.2    1294      M_A    0.0000
  13248 H          64.5879   78.3241   33.0192 H      1294      M_A    0.0000
  13249 H          63.5385   79.1167   33.7817 H      1294      M_A    0.0000
  13250 H          63.0234   79.1571   31.6830 H      1294      M_A    0.0000
  13251 H          63.1935   81.2737   30.4427 H      1294      M_A    0.0000
  13252 H          62.6194   82.3300   31.3337 H      1294      M_A    0.0000
  13253 C          64.7000   79.7313   30.9915 C.3    1295      M_A    0.0000
  13254 C          64.5191   80.7354   30.1341 C.3    1295      M_A    0.0000
  13255 C          64.6026   80.2951   28.8716 C.2    1295      M_A    0.0000
  13256 N          64.3944   81.1097   28.0205 N.3    1295      M_A    0.0000
  13257 O          64.8571   79.2999   28.5861 O.2    1295      M_A    0.0000
  13258 H          65.5673   79.7487   31.3833 H      1295      M_A    0.0000
  13259 H          64.6371   78.8969   30.5346 H      1295      M_A    0.0000
  13260 H          65.1992   81.3947   30.2427 H      1295      M_A    0.0000
  13261 H          63.8636   81.7874   28.2156 H      1295      M_A    0.0000
  13262 H          64.3421   80.7989   27.1991 H      1295      M_A    0.0000
  13263 C          63.2988   81.3714   30.3270 C.3    1296      M_A    0.0000
  13264 C          62.2535   80.5676   30.1335 C.3    1296      M_A    0.0000
  13265 C          61.7548   80.1559   31.3069 C.2    1296      M_A    0.0000
  13266 N          60.7729   79.4751   31.2459 N.3    1296      M_A    0.0000
  13267 O          62.1780   80.3718   32.2613 O.2    1296      M_A    0.0000
  13268 H          63.2868   81.7703   31.1911 H      1296      M_A    0.0000
  13269 H          63.2739   82.0941   29.7058 H      1296      M_A    0.0000
  13270 H          62.5164   79.7859   29.6552 H      1296      M_A    0.0000
  13271 H          60.2363   79.5817   30.5533 H      1296      M_A    0.0000
  13272 H          60.3844   79.2957   32.0146 H      1296      M_A    0.0000
  13273 C          61.2532   81.1837   29.3916 C.3    1297      M_A    0.0000
  13274 C          60.4864   80.3192   28.7275 C.3    1297      M_A    0.0000
  13275 C          59.7559   79.5886   29.5806 C.2    1297      M_A    0.0000
  13276 N          58.9860   78.8205   29.0822 N.3    1297      M_A    0.0000
  13277 O          59.8313   79.6316   30.6431 O.2    1297      M_A    0.0000
  13278 H          60.7421   81.7479   29.9628 H      1297      M_A    0.0000
  13279 H          61.6954   81.7648   28.7788 H      1297      M_A    0.0000
  13280 H          61.0238   79.7085   28.2303 H      1297      M_A    0.0000
  13281 H          58.6654   79.0140   28.2829 H      1297      M_A    0.0000
  13282 H          58.4320   78.4212   29.6369 H      1297      M_A    0.0000
  13283 C          59.6473   80.9565   27.8216 C.3    1298      M_A    0.0000
  13284 C          59.9884   80.7410   26.5514 C.3    1298      M_A    0.0000
  13285 C          61.2451   81.1479   26.3276 C.2    1298      M_A    0.0000
  13286 N          61.6714   80.9433   25.2287 N.3    1298      M_A    0.0000
  13287 O          61.8625   81.6473   27.0390 O.2    1298      M_A    0.0000
  13288 H          58.7469   80.7028   27.9971 H      1298      M_A    0.0000
  13289 H          59.6993   81.8875   28.0198 H      1298      M_A    0.0000
  13290 H          59.4272   81.2409   25.9649 H      1298      M_A    0.0000
  13291 H          61.3437   80.2594   24.7771 H      1298      M_A    0.0000
  13292 H          62.5275   81.1104   25.1141 H      1298      M_A    0.0000
  13293 C          59.8609   79.4033   26.1977 C.3    1299      M_A    0.0000
  13294 C          60.1866   79.1645   24.9276 C.3    1299      M_A    0.0000
  13295 C          61.1009   80.0474   24.5039 C.2    1299      M_A    0.0000
  13296 N          61.5074   79.8832   23.3908 N.3    1299      M_A    0.0000
  13297 O          61.4615   80.8749   25.0711 O.2    1299      M_A    0.0000
  13298 H          60.3672   78.8701   26.8020 H      1299      M_A    0.0000
  13299 H          58.9481   79.1736   26.3490 H      1299      M_A    0.0000
  13300 H          59.4249   79.2625   24.3627 H      1299      M_A    0.0000
  13301 H          61.5037   79.0631   23.0643 H      1299      M_A    0.0000
  13302 H          62.1830   80.3936   23.1518 H      1299      M_A    0.0000
  13303 C          60.6660   77.8729   24.7470 C.3    1300      M_A    0.0000
  13304 C          61.4671   77.7553   23.6884 C.3    1300      M_A    0.0000
  13305 C          61.7529   76.4669   23.4572 C.2    1300      M_A    0.0000
  13306 N          62.4197   76.2466   22.4887 N.3    1300      M_A    0.0000
  13307 O          61.4514   75.6526   24.0757 O.2    1300      M_A    0.0000
  13308 H          61.0887   77.5810   25.5483 H      1300      M_A    0.0000
  13309 H          59.8993   77.3167   24.6392 H      1300      M_A    0.0000
  13310 H          62.2964   78.1987   23.8455 H      1300      M_A    0.0000
  13311 H          62.3727   76.8143   21.8145 H      1300      M_A    0.0000
  13312 H          62.5160   75.3982   22.2764 H      1300      M_A    0.0000
  13313 C          60.9102   78.3218   22.5484 C.3    1301      M_A    0.0000
  13314 C          61.8222   78.7040   21.6549 C.3    1301      M_A    0.0000
  13315 C          62.0053   77.7488   20.7334 C.2    1301      M_A    0.0000
  13316 N          62.7631   78.0175   19.8476 N.3    1301      M_A    0.0000
  13317 O          61.5490   76.7855   20.7515 O.2    1301      M_A    0.0000
  13318 H          60.2773   77.7167   22.1754 H      1301      M_A    0.0000
  13319 H          60.4072   79.0757   22.8440 H      1301      M_A    0.0000
  13320 H          62.6651   78.8463   22.0771 H      1301      M_A    0.0000
  13321 H          62.8578   78.8665   19.6256 H      1301      M_A    0.0000
  13322 H          62.8005   77.4367   19.1878 H      1301      M_A    0.0000
  13323 C          61.4719   79.8946   21.0300 C.3    1302      M_A    0.0000
  13324 C          62.2186   80.9283   21.4172 C.3    1302      M_A    0.0000
  13325 C          63.5183   80.6040   21.3915 C.2    1302      M_A    0.0000
  13326 N          64.2808   81.4843   21.6650 N.3    1302      M_A    0.0000
  13327 O          63.9029   79.6344   21.1709 O.2    1302      M_A    0.0000
  13328 H          61.4952   79.7715   20.0865 H      1302      M_A    0.0000
  13329 H          60.5578   80.0520   21.2499 H      1302      M_A    0.0000
  13330 H          62.0122   81.1723   22.3155 H      1302      M_A    0.0000
  13331 H          64.0316   82.3151   21.5011 H      1302      M_A    0.0000
  13332 H          65.1330   81.3029   21.5431 H      1302      M_A    0.0000
  13333 C          62.0021   82.0516   20.6285 C.3    1303      M_A    0.0000
  13334 C          61.4771   83.0728   21.3051 C.3    1303      M_A    0.0000
  13335 C          61.5513   82.8493   22.6240 C.2    1303      M_A    0.0000
  13336 N          61.1603   83.7359   23.3257 N.3    1303      M_A    0.0000
  13337 O          61.9054   81.9498   23.0734 O.2    1303      M_A    0.0000
  13338 H          62.8149   82.2912   20.1951 H      1303      M_A    0.0000
  13339 H          61.4072   81.7796   19.9351 H      1303      M_A    0.0000
  13340 H          60.5532   83.1748   21.0933 H      1303      M_A    0.0000
  13341 H          61.2066   84.5613   23.0163 H      1303      M_A    0.0000
  13342 H          61.3085   83.6348   24.1870 H      1303      M_A    0.0000
  13343 C          62.1017   84.2759   20.9996 C.3    1304      M_A    0.0000
  13344 C          61.2434   85.2774   20.8087 C.3    1304      M_A    0.0000
  13345 C          60.0900   85.0346   21.4456 C.2    1304      M_A    0.0000
  13346 N          59.2695   85.9033   21.3876 N.3    1304      M_A    0.0000
  13347 O          59.8562   84.1342   21.9663 O.2    1304      M_A    0.0000
  13348 H          62.7403   84.4776   21.6759 H      1304      M_A    0.0000
  13349 H          62.6041   84.1209   20.2044 H      1304      M_A    0.0000
  13350 H          61.0345   85.3671   19.8828 H      1304      M_A    0.0000
  13351 H          59.5510   86.7341   21.2891 H      1304      M_A    0.0000
  13352 H          58.5583   85.7912   21.8932 H      1304      M_A    0.0000
  13353 C          61.7622   86.4954   21.2305 C.3    1305      M_A    0.0000
  13354 C          62.6184   87.0293   20.3599 C.3    1305      M_A    0.0000
  13355 C          62.5588   88.3670   20.4034 C.2    1305      M_A    0.0000
  13356 N          63.3341   88.9465   19.7003 N.3    1305      M_A    0.0000
  13357 O          61.8699   88.9301   20.9906 O.2    1305      M_A    0.0000
  13358 H          61.0452   87.0873   21.4343 H      1305      M_A    0.0000
  13359 H          62.2028   86.3249   22.0585 H      1305      M_A    0.0000
  13360 H          62.3949   86.7712   19.4697 H      1305      M_A    0.0000
  13361 H          64.0962   88.5465   19.5048 H      1305      M_A    0.0000
  13362 H          63.3696   89.8188   19.8088 H      1305      M_A    0.0000
  13363 C          63.9236   86.6124   20.5907 C.3    1306      M_A    0.0000
  13364 C          64.7659   87.6231   20.8036 C.3    1306      M_A    0.0000
  13365 C          64.3922   88.3262   21.8811 C.2    1306      M_A    0.0000
  13366 N          65.1184   89.2233   22.1958 N.3    1306      M_A    0.0000
  13367 O          63.5039   88.1555   22.4453 O.2    1306      M_A    0.0000
  13368 H          63.9300   85.9859   21.3072 H      1306      M_A    0.0000
  13369 H          64.1887   86.1248   19.8156 H      1306      M_A    0.0000
  13370 H          64.7595   88.2253   20.0645 H      1306      M_A    0.0000
  13371 H          65.9740   89.1566   21.9893 H      1306      M_A    0.0000
  13372 H          64.9327   89.6141   22.9618 H      1306      M_A    0.0000
  13373 C          66.0750   87.1853   20.9628 C.3    1307      M_A    0.0000
  13374 C          66.6869   87.7354   22.0112 C.3    1307      M_A    0.0000
  13375 C          67.6931   86.9557   22.4293 C.2    1307      M_A    0.0000
  13376 N          68.3478   87.3890   23.3320 N.3    1307      M_A    0.0000
  13377 O          67.9260   85.9931   22.0348 O.2    1307      M_A    0.0000
  13378 H          66.0844   86.2344   21.0029 H      1307      M_A    0.0000
  13379 H          66.5330   87.4170   20.1594 H      1307      M_A    0.0000
  13380 H          66.0825   87.8231   22.7433 H      1307      M_A    0.0000
  13381 H          68.4049   88.2654   23.4200 H      1307      M_A    0.0000
  13382 H          69.0709   86.9303   23.5337 H      1307      M_A    0.0000
  13383 C          67.1693   89.0066   21.7248 C.3    1308      M_A    0.0000
  13384 C          67.9519   89.4980   22.6850 C.3    1308      M_A    0.0000
  13385 C          69.2412   89.2660   22.4040 C.2    1308      M_A    0.0000
  13386 N          70.0332   89.7216   23.1763 N.3    1308      M_A    0.0000
  13387 O          69.5940   88.6992   21.5729 O.2    1308      M_A    0.0000
  13388 H          67.6076   88.9920   20.8800 H      1308      M_A    0.0000
  13389 H          66.4034   89.5629   21.6116 H      1308      M_A    0.0000
  13390 H          67.7690   89.0705   23.5173 H      1308      M_A    0.0000
  13391 H          69.8047   90.4456   23.6264 H      1308      M_A    0.0000
  13392 H          70.8775   89.6635   22.9361 H      1308      M_A    0.0000
  13393 C          67.7529   90.8603   22.8728 C.3    1309      M_A    0.0000
  13394 C          68.1314   91.2832   24.0786 C.3    1309      M_A    0.0000
  13395 C          69.0026   92.2951   23.9688 C.2    1309      M_A    0.0000
  13396 N          69.3601   92.7892   24.9980 N.3    1309      M_A    0.0000
  13397 O          69.4020   92.6618   23.0509 O.2    1309      M_A    0.0000
  13398 H          68.1872   91.3393   22.1743 H      1309      M_A    0.0000
  13399 H          66.8196   91.0123   22.7520 H      1309      M_A    0.0000
  13400 H          68.5758   90.5860   24.5535 H      1309      M_A    0.0000
  13401 H          68.8104   92.7552   25.6877 H      1309      M_A    0.0000
  13402 H          69.8447   93.5196   24.9228 H      1309      M_A    0.0000
  13403 C          67.0494   91.6809   24.8544 C.3    1310      M_A    0.0000
  13404 C          67.3578   92.6343   25.7331 C.3    1310      M_A    0.0000
  13405 C          66.3519   93.5122   25.8450 C.2    1310      M_A    0.0000
  13406 N          66.5037   94.3781   26.6564 N.3    1310      M_A    0.0000
  13407 O          65.4617   93.5010   25.2586 O.2    1310      M_A    0.0000
  13408 H          66.3334   91.9402   24.2834 H      1310      M_A    0.0000
  13409 H          66.7485   90.9006   25.3120 H      1310      M_A    0.0000
  13410 H          68.1215   93.1244   25.4408 H      1310      M_A    0.0000
  13411 H          67.0189   94.2087   27.3528 H      1310      M_A    0.0000
  13412 H          65.8024   94.8878   26.8066 H      1310      M_A    0.0000
  13413 C          67.6620   92.1110   26.9838 C.3    1311      M_A    0.0000
  13414 C          68.8847   92.4354   27.4035 C.3    1311      M_A    0.0000
  13415 C          68.9407   93.7346   27.7260 C.2    1311      M_A    0.0000
  13416 N          69.9825   94.1162   28.1732 N.3    1311      M_A    0.0000
  13417 O          68.1465   94.4331   27.5923 O.2    1311      M_A    0.0000
  13418 H          66.9904   92.3739   27.6049 H      1311      M_A    0.0000
  13419 H          67.5857   91.1643   26.9023 H      1311      M_A    0.0000
  13420 H          69.5245   92.2945   26.7109 H      1311      M_A    0.0000
  13421 H          70.4875   93.5342   28.6038 H      1311      M_A    0.0000
  13422 H          69.9858   94.9390   28.4848 H      1311      M_A    0.0000
  13423 C          69.2831   91.6671   28.4905 C.3    1312      M_A    0.0000
  13424 C          70.5688   91.8282   28.8021 C.3    1312      M_A    0.0000
  13425 C          71.0651   92.9163   28.1982 C.2    1312      M_A    0.0000
  13426 N          72.2007   93.1859   28.4607 N.3    1312      M_A    0.0000
  13427 O          70.5347   93.5256   27.5025 O.2    1312      M_A    0.0000
  13428 H          68.7115   91.8498   29.2293 H      1312      M_A    0.0000
  13429 H          69.1169   90.7595   28.2505 H      1312      M_A    0.0000
  13430 H          71.0825   91.0847   28.4983 H      1312      M_A    0.0000
  13431 H          72.5150   92.9378   29.2473 H      1312      M_A    0.0000
  13432 H          72.4915   93.9565   28.1515 H      1312      M_A    0.0000
  13433 C          70.7637   91.9261   30.1744 C.3    1313      M_A    0.0000
  13434 C          71.1332   93.1457   30.5648 C.3    1313      M_A    0.0000
  13435 C          70.0960   93.9916   30.5053 C.2    1313      M_A    0.0000
  13436 N          70.3071   95.1033   30.8936 N.3    1313      M_A    0.0000
  13437 O          69.1300   93.7497   30.1247 O.2    1313      M_A    0.0000
  13438 H          69.9787   91.6304   30.6240 H      1313      M_A    0.0000
  13439 H          71.4431   91.2940   30.3928 H      1313      M_A    0.0000
  13440 H          71.8066   93.4926   29.9859 H      1313      M_A    0.0000
  13441 H          70.9330   95.2174   31.5054 H      1313      M_A    0.0000
  13442 H          69.6023   95.6261   30.9564 H      1313      M_A    0.0000
  13443 C          71.6608   93.1435   31.8502 C.3    1314      M_A    0.0000
  13444 C          70.7665   93.4685   32.7835 C.3    1314      M_A    0.0000
  13445 C          69.6308   93.8966   32.2161 C.2    1314      M_A    0.0000
  13446 N          68.7383   94.1576   32.9686 N.3    1314      M_A    0.0000
  13447 O          69.4845   94.0362   31.1693 O.2    1314      M_A    0.0000
  13448 H          72.0640   92.2986   32.0216 H      1314      M_A    0.0000
  13449 H          72.3734   93.7767   31.8469 H      1314      M_A    0.0000
  13450 H          71.0919   94.1829   33.3243 H      1314      M_A    0.0000
  13451 H          68.7106   93.7340   33.7425 H      1314      M_A    0.0000
  13452 H          67.9620   94.3335   32.5939 H      1314      M_A    0.0000
  13453 C          70.4913   92.4046   33.6339 C.3    1315      M_A    0.0000
  13454 C          71.0377   92.5450   34.8414 C.3    1315      M_A    0.0000
  13455 C          71.1832   93.8423   35.1425 C.2    1315      M_A    0.0000
  13456 N          71.6113   94.0792   36.2342 N.3    1315      M_A    0.0000
  13457 O          70.9690   94.6516   34.4824 O.2    1315      M_A    0.0000
  13458 H          69.5492   92.2775   33.6813 H      1315      M_A    0.0000
  13459 H          70.8383   91.6259   33.2074 H      1315      M_A    0.0000
  13460 H          71.9083   92.1569   34.8618 H      1315      M_A    0.0000
  13461 H          71.4579   93.4933   36.8763 H      1315      M_A    0.0000
  13462 H          71.6047   94.9264   36.4713 H      1315      M_A    0.0000
  13463 C          70.2874   91.9179   35.8285 C.3    1316      M_A    0.0000
  13464 C          70.9237   90.8954   36.3993 C.2    1316      M_A    0.0000
  13465 C          71.6081   91.3097   37.4740 C.2    1316      M_A    0.0000
  13466 N          72.1686   90.4555   38.0963 N.3    1316      M_A    0.0000
  13467 O          71.7002   92.3247   37.7870 O.2    1316      M_A    0.0000
  13468 H          70.0075   92.5653   36.4677 H      1316      M_A    0.0000
  13469 H          69.4915   91.6103   35.4033 H      1316      M_A    0.0000
  13470 H          71.5580   90.5174   35.7962 H      1316      M_A    0.0000
  13471 H          71.8324   89.6395   38.0768 H      1316      M_A    0.0000
  13472 H          72.5258   90.7106   38.8587 H      1316      M_A    0.0000
  13473 C          56.4352   84.8497   40.3167 C.2    1317      M_A    0.0000
  13474 C          56.7229   86.2264   39.7485 C.3    1317      M_A    0.0000
  13475 C          55.4808   86.7944   39.0703 C.2    1317      M_A    0.0000
  13476 N          55.5984   88.0593   38.5805 N.3    1317      M_A    0.0000
  13477 O          54.4342   86.1986   38.9220 O.2    1317      M_A    0.0000
  13478 H          56.5301   84.8279   41.3956 H      1317      M_A    0.0000
  13479 H          57.1589   84.1342   39.9406 H      1317      M_A    0.0000
  13480 H          57.4978   86.1713   38.9909 H      1317      M_A    0.0000
  13481 H          56.2540   88.6784   39.0233 H      1317      M_A    0.0000
  13482 H          54.7514   88.4768   38.2474 H      1317      M_A    0.0000
  13483 C          57.2287   87.2321   40.8592 C.3    1318      M_A    0.0000
  13484 C          58.6859   87.0285   41.2281 C.3    1318      M_A    0.0000
  13485 C          59.3319   88.3573   41.6051 C.2    1318      M_A    0.0000
  13486 N          60.6263   88.2903   42.0225 N.3    1318      M_A    0.0000
  13487 O          58.7895   89.4404   41.5345 O.2    1318      M_A    0.0000
  13488 H          57.0294   88.2473   40.5379 H      1318      M_A    0.0000
  13489 H          56.5994   87.0667   41.7274 H      1318      M_A    0.0000
  13490 H          59.2417   86.6369   40.3824 H      1318      M_A    0.0000
  13491 H          60.9389   87.4406   42.4577 H      1318      M_A    0.0000
  13492 H          61.0102   89.1407   42.3860 H      1318      M_A    0.0000
  13493 C          58.8582   85.9981   42.4154 C.3    1319      M_A    0.0000
  13494 C          59.7209   86.5291   43.5444 C.3    1319      M_A    0.0000
  13495 C          59.5458   88.0373   43.6861 C.2    1319      M_A    0.0000
  13496 N          60.2211   88.6187   44.7156 N.3    1319      M_A    0.0000
  13497 O          58.8829   88.7341   42.9464 O.2    1319      M_A    0.0000
  13498 H          57.8802   85.6883   42.7631 H      1319      M_A    0.0000
  13499 H          59.3142   85.1127   41.9847 H      1319      M_A    0.0000
  13500 H          60.7712   86.3523   43.3367 H      1319      M_A    0.0000
  13501 H          60.4192   88.0596   45.5263 H      1319      M_A    0.0000
  13502 H          60.0102   89.5830   44.8840 H      1319      M_A    0.0000
  13503 C          59.3940   85.8245   44.9219 C.3    1320      M_A    0.0000
  13504 C          60.6334   85.3538   45.6590 C.3    1320      M_A    0.0000
  13505 C          60.2500   84.6804   46.9723 C.2    1320      M_A    0.0000
  13506 N          61.2793   84.1540   47.6917 N.3    1320      M_A    0.0000
  13507 O          59.1226   84.6086   47.4152 O.2    1320      M_A    0.0000
  13508 H          58.7895   86.4889   45.5273 H      1320      M_A    0.0000
  13509 H          58.7584   84.9774   44.6859 H      1320      M_A    0.0000
  13510 H          61.2695   86.1960   45.9110 H      1320      M_A    0.0000
  13511 H          62.0969   83.8500   47.1935 H      1320      M_A    0.0000
  13512 H          61.0174   83.6064   48.4881 H      1320      M_A    0.0000
  13513 C          61.5008   84.3606   44.7860 C.3    1321      M_A    0.0000
  13514 C          62.7946   83.9480   45.4619 C.3    1321      M_A    0.0000
  13515 C          63.1040   82.4829   45.1737 C.2    1321      M_A    0.0000
  13516 N          64.2812   82.0157   45.6736 N.3    1321      M_A    0.0000
  13517 O          62.3773   81.7239   44.5670 O.2    1321      M_A    0.0000
  13518 H          60.8952   83.5052   44.5122 H      1321      M_A    0.0000
  13519 H          61.7161   84.8809   43.8586 H      1321      M_A    0.0000
  13520 H          62.7094   84.0457   46.5393 H      1321      M_A    0.0000
  13521 H          65.0326   82.6699   45.8022 H      1321      M_A    0.0000
  13522 H          64.5421   81.0941   45.3815 H      1321      M_A    0.0000
  13523 C          64.0135   84.8477   45.0081 C.3    1322      M_A    0.0000
  13524 C          65.3511   84.1423   45.1269 C.3    1322      M_A    0.0000
  13525 C          65.4748   83.0507   44.0694 C.2    1322      M_A    0.0000
  13526 N          66.6657   82.3916   44.0335 N.3    1322      M_A    0.0000
  13527 O          64.5963   82.7252   43.2982 O.2    1322      M_A    0.0000
  13528 H          63.8338   85.2106   44.0034 H      1322      M_A    0.0000
  13529 H          63.9980   85.7242   45.6475 H      1322      M_A    0.0000
  13530 H          65.4410   83.6565   46.0929 H      1322      M_A    0.0000
  13531 H          67.4857   82.8804   44.3464 H      1322      M_A    0.0000
  13532 H          66.7918   81.7636   43.2639 H      1322      M_A    0.0000
  13533 C          66.5649   85.1478   44.9970 C.3    1323      M_A    0.0000
  13534 C          67.8865   84.5458   45.4351 C.3    1323      M_A    0.0000
  13535 C          67.9372   83.0611   45.0909 C.2    1323      M_A    0.0000
  13536 N          69.1072   82.4256   45.3757 N.3    1323      M_A    0.0000
  13537 O          67.0195   82.4243   44.6168 O.2    1323      M_A    0.0000
  13538 H          66.6075   85.5257   43.9827 H      1323      M_A    0.0000
  13539 H          66.3204   86.0007   45.6215 H      1323      M_A    0.0000
  13540 H          68.0023   84.6235   46.5112 H      1323      M_A    0.0000
  13541 H          69.9523   82.9688   45.3743 H      1323      M_A    0.0000
  13542 H          69.1846   81.4860   45.0385 H      1323      M_A    0.0000
  13543 C          69.1211   85.2856   44.7798 C.3    1324      M_A    0.0000
  13544 C          70.2150   85.6167   45.7770 C.3    1324      M_A    0.0000
  13545 C          71.5755   85.6411   45.0887 C.2    1324      M_A    0.0000
  13546 N          72.6307   85.9959   45.8726 N.3    1324      M_A    0.0000
  13547 O          71.7741   85.3487   43.9279 O.2    1324      M_A    0.0000
  13548 H          69.4922   84.6941   43.9516 H      1324      M_A    0.0000
  13549 H          68.7301   86.1978   44.3412 H      1324      M_A    0.0000
  13550 H          70.2673   84.8578   46.5508 H      1324      M_A    0.0000
  13551 H          72.4553   86.6000   46.6558 H      1324      M_A    0.0000
  13552 H          73.5004   86.1317   45.3952 H      1324      M_A    0.0000
  13553 C          69.9599   87.0005   46.4989 C.3    1325      M_A    0.0000
  13554 C          70.8528   88.1139   45.9851 C.3    1325      M_A    0.0000
  13555 C          72.1512   87.5421   45.4261 C.2    1325      M_A    0.0000
  13556 N          73.0065   88.4446   44.8713 N.3    1325      M_A    0.0000
  13557 O          72.4714   86.3724   45.4663 O.2    1325      M_A    0.0000
  13558 H          68.9096   87.2542   46.4219 H      1325      M_A    0.0000
  13559 H          70.1477   86.8312   47.5541 H      1325      M_A    0.0000
  13560 H          71.1263   88.7858   46.7920 H      1325      M_A    0.0000
  13561 H          72.6180   89.2828   44.4766 H      1325      M_A    0.0000
  13562 H          73.7983   88.0576   44.3960 H      1325      M_A    0.0000
  13563 C          70.1355   88.9851   44.8771 C.3    1326      M_A    0.0000
  13564 C          70.0793   90.4608   45.2238 C.3    1326      M_A    0.0000
  13565 C          71.3651   91.1593   44.7948 C.2    1326      M_A    0.0000
  13566 N          71.4033   92.5059   44.9932 N.3    1326      M_A    0.0000
  13567 O          72.3364   90.6038   44.3255 O.2    1326      M_A    0.0000
  13568 H          70.6145   88.8107   43.9213 H      1326      M_A    0.0000
  13569 H          69.1304   88.5876   44.7823 H      1326      M_A    0.0000
  13570 H          69.9899   90.5968   46.2966 H      1326      M_A    0.0000
  13571 H          70.5340   93.0093   44.9860 H      1326      M_A    0.0000
  13572 H          72.1927   92.9807   44.6007 H      1326      M_A    0.0000
  13573 C          68.8372   91.1790   44.5586 C.3    1327      M_A    0.0000
  13574 C          68.9971   91.3831   43.0641 C.3    1327      M_A    0.0000
  13575 C          67.7681   92.0758   42.4853 C.2    1327      M_A    0.0000
  13576 N          67.8257   92.3750   41.1582 N.3    1327      M_A    0.0000
  13577 O          66.7627   92.3460   43.1085 O.2    1327      M_A    0.0000
  13578 H          67.9362   90.6276   44.7988 H      1327      M_A    0.0000
  13579 H          68.7395   92.1383   45.0560 H      1327      M_A    0.0000
  13580 H          69.0884   90.4282   42.5569 H      1327      M_A    0.0000
  13581 H          68.7291   92.5339   40.7485 H      1327      M_A    0.0000
  13582 H          67.0754   92.9372   40.8066 H      1327      M_A    0.0000
  13583 C          70.2925   92.2207   42.7156 C.3    1328      M_A    0.0000
  13584 C          71.0271   91.7011   41.4945 C.3    1328      M_A    0.0000
  13585 C          70.6994   90.2304   41.2599 C.2    1328      M_A    0.0000
  13586 N          71.2494   89.6702   40.1474 N.3    1328      M_A    0.0000
  13587 O          70.0207   89.5424   41.9935 O.2    1328      M_A    0.0000
  13588 H          70.0247   93.2654   42.6141 H      1328      M_A    0.0000
  13589 H          70.9351   92.1624   43.5880 H      1328      M_A    0.0000
  13590 H          72.1005   91.7651   41.6399 H      1328      M_A    0.0000
  13591 H          71.4485   90.2693   39.3659 H      1328      M_A    0.0000
  13592 H          70.9366   88.7449   39.9269 H      1328      M_A    0.0000
  13593 C          70.6830   92.5358   40.1961 C.3    1329      M_A    0.0000
  13594 C          69.2819   92.2770   39.6756 C.2    1329      M_A    0.0000
  13595 C          68.2945   93.2657   40.2861 C.2    1329      M_A    0.0000
  13596 N          67.0113   93.1747   39.8398 N.3    1329      M_A    0.0000
  13597 O          68.5669   94.0866   41.1371 O.2    1329      M_A    0.0000
  13598 H          70.8553   93.5871   40.3923 H      1329      M_A    0.0000
  13599 H          71.4154   92.2495   39.4485 H      1329      M_A    0.0000
  13600 H          68.9482   91.2839   39.9579 H      1329      M_A    0.0000
  13601 H          66.8578   92.8229   38.9114 H      1329      M_A    0.0000
  13602 H          66.3923   93.8998   40.1461 H      1329      M_A    0.0000
  13603 C          59.4555   23.1837    6.3286 C.2    1330      M_A    0.0000
  13604 C          58.3358   24.1307    6.7836 C.3    1330      M_A    0.0000
  13605 C          56.9530   23.5359    6.4423 C.2    1330      M_A    0.0000
  13606 N          55.8639   24.2665    6.8661 N.3    1330      M_A    0.0000
  13607 O          56.7680   22.4971    5.8137 O.2    1330      M_A    0.0000
  13608 H          59.8172   22.5514    7.1482 H      1330      M_A    0.0000
  13609 H          60.3246   23.7643    5.9911 H      1330      M_A    0.0000
  13610 H          58.4074   25.0927    6.2583 H      1330      M_A    0.0000
  13611 H          55.9733   24.8548    7.6883 H      1330      M_A    0.0000
  13612 H          54.9622   23.8173    6.7537 H      1330      M_A    0.0000
  13613 C          58.4147   24.4434    8.3515 C.3    1331      M_A    0.0000
  13614 C          59.7203   25.1391    8.7626 C.3    1331      M_A    0.0000
  13615 C          59.8754   26.4815    8.0168 C.2    1331      M_A    0.0000
  13616 N          60.9797   27.2330    8.3563 N.3    1331      M_A    0.0000
  13617 O          59.1135   26.8974    7.1479 O.2    1331      M_A    0.0000
  13618 H          57.5307   25.0197    8.6492 H      1331      M_A    0.0000
  13619 H          58.3280   23.4750    8.8624 H      1331      M_A    0.0000
  13620 H          60.5877   24.5221    8.4919 H      1331      M_A    0.0000
  13621 H          61.3604   27.1272    9.2932 H      1331      M_A    0.0000
  13622 H          61.0154   28.1657    7.9611 H      1331      M_A    0.0000
  13623 C          59.7951   25.3895   10.3420 C.3    1332      M_A    0.0000
  13624 C          61.1647   25.9051   10.8064 C.3    1332      M_A    0.0000
  13625 C          62.2645   24.8651   10.5043 C.2    1332      M_A    0.0000
  13626 N          63.5523   25.2456   10.8145 N.3    1332      M_A    0.0000
  13627 O          62.0672   23.7441   10.0427 O.2    1332      M_A    0.0000
  13628 H          58.9809   26.0610   10.6395 H      1332      M_A    0.0000
  13629 H          59.5765   24.4235   10.8166 H      1332      M_A    0.0000
  13630 H          61.1679   26.0657   11.8930 H      1332      M_A    0.0000
  13631 H          63.7750   26.2376   10.7977 H      1332      M_A    0.0000
  13632 H          64.2839   24.6171   10.5025 H      1332      M_A    0.0000
  13633 C          61.5432   27.3022   10.1228 C.3    1333      M_A    0.0000
  13634 C          62.5916   28.0966   10.9148 C.3    1333      M_A    0.0000
  13635 C          63.5430   28.8425    9.9552 C.2    1333      M_A    0.0000
  13636 N          64.4878   29.6486   10.5527 N.3    1333      M_A    0.0000
  13637 O          63.5278   28.7457    8.7309 O.2    1333      M_A    0.0000
  13638 H          61.8588   27.1234    9.0880 H      1333      M_A    0.0000
  13639 H          60.6085   27.8750   10.0571 H      1333      M_A    0.0000
  13640 H          63.2127   27.4206   11.5179 H      1333      M_A    0.0000
  13641 H          64.2692   30.0487   11.4616 H      1333      M_A    0.0000
  13642 H          65.0284   30.2324    9.9247 H      1333      M_A    0.0000
  13643 C          61.9170   29.1411   11.9230 C.3    1334      M_A    0.0000
  13644 C          62.9280   30.1095   12.5535 C.3    1334      M_A    0.0000
  13645 C          63.8778   30.6758   11.4767 C.2    1334      M_A    0.0000
  13646 N          64.7889   31.6135   11.9127 N.3    1334      M_A    0.0000
  13647 O          63.8893   30.3348   10.2968 O.2    1334      M_A    0.0000
  13648 H          61.1083   29.6709   11.4055 H      1334      M_A    0.0000
  13649 H          61.4315   28.5427   12.7056 H      1334      M_A    0.0000
  13650 H          63.5550   29.5874   13.2887 H      1334      M_A    0.0000
  13651 H          64.5420   32.1812   12.7194 H      1334      M_A    0.0000
  13652 H          65.3260   32.0754   11.1877 H      1334      M_A    0.0000
  13653 C          62.2061   31.3144   13.3213 C.3    1335      M_A    0.0000
  13654 C          62.7803   31.5663   14.7229 C.3    1335      M_A    0.0000
  13655 C          63.8460   32.6820   14.6779 C.2    1335      M_A    0.0000
  13656 N          64.3857   33.0463   15.8926 N.3    1335      M_A    0.0000
  13657 O          64.2493   33.2309   13.6559 O.2    1335      M_A    0.0000
  13658 H          62.2416   32.2138   12.6951 H      1335      M_A    0.0000
  13659 H          61.1450   31.0404   13.3937 H      1335      M_A    0.0000
  13660 H          63.2790   30.6645   15.1029 H      1335      M_A    0.0000
  13661 H          63.8150   32.9242   16.7253 H      1335      M_A    0.0000
  13662 H          64.9899   33.8599   15.8792 H      1335      M_A    0.0000
  13663 C          61.6402   31.9538   15.7776 C.3    1336      M_A    0.0000
  13664 C          61.7866   31.2224   17.1197 C.3    1336      M_A    0.0000
  13665 C          63.1444   31.2216   17.5007 C.2    1336      M_A    0.0000
  13666 N          63.4071   30.6550   18.5940 N.3    1336      M_A    0.0000
  13667 O          63.9829   31.6604   16.8977 O.2    1336      M_A    0.0000
  13668 H          61.6203   33.0429   15.9032 H      1336      M_A    0.0000
  13669 H          60.6839   31.6881   15.3073 H      1336      M_A    0.0000
  13670 H          61.5190   30.2635   16.9941 H      1336      M_A    0.0000
  13671 H          62.7440   30.6314   19.2443 H      1336      M_A    0.0000
  13672 H          64.2759   30.7533   18.8991 H      1336      M_A    0.0000
  13673 C          60.9709   31.7576   18.2092 C.3    1337      M_A    0.0000
  13674 C          59.6781   31.2144   18.2475 C.3    1337      M_A    0.0000
  13675 C          59.7052   29.9133   18.7907 C.2    1337      M_A    0.0000
  13676 N          58.5858   29.3539   18.9307 N.3    1337      M_A    0.0000
  13677 O          60.6350   29.3534   19.0754 O.2    1337      M_A    0.0000
  13678 H          61.4565   31.6326   19.0764 H      1337      M_A    0.0000
  13679 H          60.9224   32.7491   18.0622 H      1337      M_A    0.0000
  13680 H          59.3018   31.1352   17.3206 H      1337      M_A    0.0000
  13681 H          57.8407   29.8936   19.0594 H      1337      M_A    0.0000
  13682 H          58.5930   28.5501   19.3905 H      1337      M_A    0.0000
  13683 C          58.7556   32.0489   19.0166 C.3    1338      M_A    0.0000
  13684 C          58.1077   33.0176   18.2358 C.3    1338      M_A    0.0000
  13685 C          58.6497   33.0461   16.9343 C.2    1338      M_A    0.0000
  13686 N          58.0973   33.8391   16.1272 N.3    1338      M_A    0.0000
  13687 O          59.5304   32.4420   16.5899 O.2    1338      M_A    0.0000
  13688 H          58.1051   31.4607   19.5010 H      1338      M_A    0.0000
  13689 H          59.3061   32.4934   19.7280 H      1338      M_A    0.0000
  13690 H          58.2412   33.9321   18.6269 H      1338      M_A    0.0000
  13691 H          57.2006   34.0430   16.2596 H      1338      M_A    0.0000
  13692 H          58.3766   33.7756   15.2466 H      1338      M_A    0.0000
  13693 C          56.6652   32.7875   18.1625 C.3    1339      M_A    0.0000
  13694 C          56.0266   33.5940   17.2088 C.3    1339      M_A    0.0000
  13695 C          55.9329   32.9189   15.9743 C.2    1339      M_A    0.0000
  13696 N          55.3179   33.5291   15.0606 N.3    1339      M_A    0.0000
  13697 O          56.3786   31.9127   15.7549 O.2    1339      M_A    0.0000
  13698 H          56.4947   31.8130   18.0047 H      1339      M_A    0.0000
  13699 H          56.3029   32.9850   19.0771 H      1339      M_A    0.0000
  13700 H          56.5558   34.4305   17.0438 H      1339      M_A    0.0000
  13701 H          54.6592   34.1361   15.3072 H      1339      M_A    0.0000
  13702 H          55.1572   33.0420   14.2896 H      1339      M_A    0.0000
  13703 C          54.6934   34.0076   17.6452 C.3    1340      M_A    0.0000
  13704 C          53.9531   34.6368   16.6333 C.3    1340      M_A    0.0000
  13705 C          52.5727   34.4213   16.8246 C.2    1340      M_A    0.0000
  13706 N          51.8088   34.9971   16.0058 N.3    1340      M_A    0.0000
  13707 O          52.1269   33.7700   17.6222 O.2    1340      M_A    0.0000
  13708 H          54.2113   33.2164   18.0263 H      1340      M_A    0.0000
  13709 H          54.8327   34.6395   18.4120 H      1340      M_A    0.0000
  13710 H          54.1861   34.2528   15.7359 H      1340      M_A    0.0000
  13711 H          52.1040   35.7856   15.6131 H      1340      M_A    0.0000
  13712 H          50.9043   34.9496   16.1983 H      1340      M_A    0.0000
  13713 C          54.2221   36.0729   16.5697 C.3    1341      M_A    0.0000
  13714 C          53.2112   36.8491   17.1558 C.3    1341      M_A    0.0000
  13715 C          53.3476   36.8593   18.5593 C.2    1341      M_A    0.0000
  13716 N          52.5267   37.5804   19.1851 N.3    1341      M_A    0.0000
  13717 O          54.1037   36.2649   19.1373 O.2    1341      M_A    0.0000
  13718 H          55.1197   36.2582   16.9740 H      1341      M_A    0.0000
  13719 H          54.3077   36.2994   15.5959 H      1341      M_A    0.0000
  13720 H          52.3079   36.4616   16.9538 H      1341      M_A    0.0000
  13721 H          52.1751   38.3216   18.7489 H      1341      M_A    0.0000
  13722 H          52.6866   37.6772   20.0920 H      1341      M_A    0.0000
  13723 C          53.2128   38.2222   16.6520 C.3    1342      M_A    0.0000
  13724 C          52.2082   39.0188   17.2210 C.3    1342      M_A    0.0000
  13725 C          52.7171   39.7485   18.3152 C.2    1342      M_A    0.0000
  13726 N          51.9130   40.5476   18.8634 N.3    1342      M_A    0.0000
  13727 O          53.7549   39.6477   18.7299 O.2    1342      M_A    0.0000
  13728 H          54.1238   38.6189   16.7797 H      1342      M_A    0.0000
  13729 H          53.0784   38.1570   15.6598 H      1342      M_A    0.0000
  13730 H          51.4628   38.4470   17.5739 H      1342      M_A    0.0000
  13731 H          51.2321   40.9074   18.3437 H      1342      M_A    0.0000
  13732 H          52.2773   41.1073   19.5049 H      1342      M_A    0.0000
  13733 C          51.6208   39.9387   16.2475 C.3    1343      M_A    0.0000
  13734 C          50.2182   39.9426   16.2699 C.3    1343      M_A    0.0000
  13735 C          49.7406   40.9775   17.1003 C.2    1343      M_A    0.0000
  13736 N          48.4895   41.1130   17.1435 N.3    1343      M_A    0.0000
  13737 O          50.3848   41.6521   17.7240 O.2    1343      M_A    0.0000
  13738 H          52.0011   40.8547   16.3886 H      1343      M_A    0.0000
  13739 H          51.9489   39.6411   15.3471 H      1343      M_A    0.0000
  13740 H          49.8696   39.0812   16.6486 H      1343      M_A    0.0000
  13741 H          47.9956   40.8495   16.4021 H      1343      M_A    0.0000
  13742 H          48.1816   41.8603   17.5956 H      1343      M_A    0.0000
  13743 C          49.6490   40.0853   14.9303 C.3    1344      M_A    0.0000
  13744 C          48.5813   40.9936   14.8794 C.3    1344      M_A    0.0000
  13745 C          48.6445   41.7644   13.7002 C.2    1344      M_A    0.0000
  13746 N          47.6950   42.5717   13.5208 N.3    1344      M_A    0.0000
  13747 O          49.4746   41.7215   12.9463 O.2    1344      M_A    0.0000
  13748 H          50.3778   40.3262   14.2866 H      1344      M_A    0.0000
  13749 H          49.3353   39.1713   14.6601 H      1344      M_A    0.0000
  13750 H          48.6278   41.6353   15.6495 H      1344      M_A    0.0000
  13751 H          46.8701   42.3662   13.8956 H      1344      M_A    0.0000
  13752 H          47.6762   42.9932   12.6965 H      1344      M_A    0.0000
  13753 C          47.2850   40.3208   14.9577 C.3    1345      M_A    0.0000
  13754 C          46.2319   41.0929   14.4454 C.3    1345      M_A    0.0000
  13755 C          45.9723   40.7456   13.1035 C.2    1345      M_A    0.0000
  13756 N          45.0002   41.3353   12.5623 N.3    1345      M_A    0.0000
  13757 O          46.5737   40.0162   12.4990 O.2    1345      M_A    0.0000
  13758 H          47.3495   39.4282   14.5076 H      1345      M_A    0.0000
  13759 H          47.1277   40.1275   15.9296 H      1345      M_A    0.0000
  13760 H          46.4733   42.0669   14.4525 H      1345      M_A    0.0000
  13761 H          44.3063   41.6250   13.1079 H      1345      M_A    0.0000
  13762 H          44.7592   41.0262   11.7233 H      1345      M_A    0.0000
  13763 C          45.0101   40.9468   15.2359 C.3    1346      M_A    0.0000
  13764 C          43.8727   41.4548   14.5910 C.3    1346      M_A    0.0000
  13765 C          44.2451   42.2702   13.5024 C.2    1346      M_A    0.0000
  13766 N          43.2978   42.7292   12.8114 N.3    1346      M_A    0.0000
  13767 O          45.2994   42.5463   13.2355 O.2    1346      M_A    0.0000
  13768 H          44.8975   39.9853   15.4937 H      1346      M_A    0.0000
  13769 H          45.1695   41.4438   16.0929 H      1346      M_A    0.0000
  13770 H          43.3403   42.0304   15.2173 H      1346      M_A    0.0000
  13771 H          42.5072   42.2425   12.7759 H      1346      M_A    0.0000
  13772 H          43.5434   43.1679   12.0338 H      1346      M_A    0.0000
  13773 C          42.9848   40.3897   14.1259 C.3    1347      M_A    0.0000
  13774 C          41.7233   40.8580   13.7295 C.3    1347      M_A    0.0000
  13775 C          41.7971   41.4567   12.4548 C.2    1347      M_A    0.0000
  13776 N          40.7049   41.8568   11.9725 N.3    1347      M_A    0.0000
  13777 O          42.7424   41.6152   11.8713 O.2    1347      M_A    0.0000
  13778 H          43.4405   39.8758   13.3967 H      1347      M_A    0.0000
  13779 H          42.8880   39.7503   14.8931 H      1347      M_A    0.0000
  13780 H          41.3941   41.5628   14.3635 H      1347      M_A    0.0000
  13781 H          39.9263   41.4239   12.2361 H      1347      M_A    0.0000
  13782 H          40.7354   42.1442   11.0928 H      1347      M_A    0.0000
  13783 C          40.7226   39.7916   13.7143 C.3    1348      M_A    0.0000
  13784 C          39.8966   39.7952   14.8481 C.3    1348      M_A    0.0000
  13785 C          38.5493   39.9841   14.4768 C.2    1348      M_A    0.0000
  13786 N          37.7104   39.9406   15.4148 N.3    1348      M_A    0.0000
  13787 O          38.1913   40.1878   13.4330 O.2    1348      M_A    0.0000
  13788 H          40.1945   39.8475   12.8649 H      1348      M_A    0.0000
  13789 H          41.2328   38.9290   13.6640 H      1348      M_A    0.0000
  13790 H          40.1395   40.5538   15.4584 H      1348      M_A    0.0000
  13791 H          37.9171   39.4291   16.1624 H      1348      M_A    0.0000
  13792 H          36.8205   39.9501   15.1589 H      1348      M_A    0.0000
  13793 C          40.0243   38.5616   15.6232 C.3    1349      M_A    0.0000
  13794 C          39.6161   38.7048   16.9576 C.3    1349      M_A    0.0000
  13795 C          38.2552   39.0687   17.0214 C.2    1349      M_A    0.0000
  13796 N          37.7660   39.1626   18.1778 N.3    1349      M_A    0.0000
  13797 O          37.6069   39.2958   16.1341 O.2    1349      M_A    0.0000
  13798 H          39.5295   37.8263   15.1562 H      1349      M_A    0.0000
  13799 H          40.9940   38.3063   15.5863 H      1349      M_A    0.0000
  13800 H          40.1346   39.4365   17.4079 H      1349      M_A    0.0000
  13801 H          38.1386   38.6448   18.8532 H      1349      M_A    0.0000
  13802 H          36.8494   39.2886   18.2174 H      1349      M_A    0.0000
  13803 C          39.8349   37.4834   17.7318 C.3    1350      M_A    0.0000
  13804 C          38.7677   36.5771   17.6442 C.3    1350      M_A    0.0000
  13805 C          38.3529   36.4308   16.3043 C.2    1350      M_A    0.0000
  13806 N          37.4385   35.5892   16.1019 N.3    1350      M_A    0.0000
  13807 O          38.7580   37.0163   15.4370 O.2    1350      M_A    0.0000
  13808 H          40.7034   37.0685   17.4542 H      1350      M_A    0.0000
  13809 H          39.9614   37.7737   18.6839 H      1350      M_A    0.0000
  13810 H          37.9754   36.9152   18.1589 H      1350      M_A    0.0000
  13811 H          37.3655   34.8735   16.6897 H      1350      M_A    0.0000
  13812 H          37.2462   35.4105   15.2139 H      1350      M_A    0.0000
  13813 C          39.1134   35.2681   18.1973 C.3    1351      M_A    0.0000
  13814 C          38.1130   34.7385   19.0258 C.3    1351      M_A    0.0000
  13815 C          37.2791   33.8656   18.2969 C.2    1351      M_A    0.0000
  13816 N          36.3816   33.2827   18.9603 N.3    1351      M_A    0.0000
  13817 O          37.3483   33.6814   17.1922 O.2    1351      M_A    0.0000
  13818 H          39.3489   34.6458   17.4484 H      1351      M_A    0.0000
  13819 H          39.9591   35.3995   18.7212 H      1351      M_A    0.0000
  13820 H          37.5269   35.4709   19.3824 H      1351      M_A    0.0000
  13821 H          36.5363   33.1285   19.8633 H      1351      M_A    0.0000
  13822 H          35.9097   32.6266   18.5083 H      1351      M_A    0.0000
  13823 C          38.6723   34.0348   20.1794 C.3    1352      M_A    0.0000
  13824 C          37.7440   33.1993   20.8181 C.3    1352      M_A    0.0000
  13825 C          38.3748   32.0291   21.2886 C.2    1352      M_A    0.0000
  13826 N          37.6438   31.2343   21.9363 N.3    1352      M_A    0.0000
  13827 O          39.4488   31.7589   21.1074 O.2    1352      M_A    0.0000
  13828 H          39.4929   33.5356   19.8947 H      1352      M_A    0.0000
  13829 H          38.9891   34.7444   20.8142 H      1352      M_A    0.0000
  13830 H          37.0317   32.9073   20.1744 H      1352      M_A    0.0000
  13831 H          36.9174   31.5855   22.3968 H      1352      M_A    0.0000
  13832 H          38.0811   30.5255   22.3413 H      1352      M_A    0.0000
  13833 C          37.0710   33.8745   21.9272 C.3    1353      M_A    0.0000
  13834 C          35.6796   33.9474   21.7648 C.3    1353      M_A    0.0000
  13835 C          35.0260   33.1946   22.7621 C.2    1353      M_A    0.0000
  13836 N          33.7678   33.2419   22.7491 N.3    1353      M_A    0.0000
  13837 O          35.5406   32.5568   23.5287 O.2    1353      M_A    0.0000
  13838 H          37.3257   33.4289   22.7875 H      1353      M_A    0.0000
  13839 H          37.4604   34.7983   21.9708 H      1353      M_A    0.0000
  13840 H          35.4073   33.5582   20.8809 H      1353      M_A    0.0000
  13841 H          33.3628   34.0036   22.4044 H      1353      M_A    0.0000
  13842 H          33.3431   32.8428   23.4688 H      1353      M_A    0.0000
  13843 C          35.1958   35.3273   21.7946 C.3    1354      M_A    0.0000
  13844 C          34.7755   35.7362   23.0690 C.3    1354      M_A    0.0000
  13845 C          35.6149   35.1933   24.0636 C.2    1354      M_A    0.0000
  13846 N          35.3657   35.5485   25.2456 N.3    1354      M_A    0.0000
  13847 O          36.4507   34.4684   23.8759 O.2    1354      M_A    0.0000
  13848 H          35.9013   35.9319   21.4201 H      1354      M_A    0.0000
  13849 H          34.4279   35.3692   21.1501 H      1354      M_A    0.0000
  13850 H          33.8478   35.4034   23.2575 H      1354      M_A    0.0000
  13851 H          34.9676   36.3774   25.3780 H      1354      M_A    0.0000
  13852 H          35.9835   35.2849   25.8832 H      1354      M_A    0.0000
  13853 C          34.7437   37.1930   23.1944 C.3    1355      M_A    0.0000
  13854 C          34.4821   37.6277   24.5022 C.3    1355      M_A    0.0000
  13855 C          35.6270   38.2341   25.0592 C.2    1355      M_A    0.0000
  13856 N          35.4847   38.7193   26.2124 N.3    1355      M_A    0.0000
  13857 O          36.6324   38.2890   24.5638 O.2    1355      M_A    0.0000
  13858 H          35.5985   37.5732   22.8363 H      1355      M_A    0.0000
  13859 H          34.0210   37.5120   22.5756 H      1355      M_A    0.0000
  13860 H          34.2487   36.8499   25.0918 H      1355      M_A    0.0000
  13861 H          34.6388   39.0106   26.4625 H      1355      M_A    0.0000
  13862 H          36.1989   39.2155   26.5305 H      1355      M_A    0.0000
  13863 C          33.3571   38.5606   24.5550 C.3    1356      M_A    0.0000
  13864 C          33.6270   39.7064   25.3179 C.3    1356      M_A    0.0000
  13865 C          35.0170   39.8662   25.4941 C.2    1356      M_A    0.0000
  13866 N          35.3760   40.9022   26.1132 N.3    1356      M_A    0.0000
  13867 O          35.7980   39.1386   25.1481 O.2    1356      M_A    0.0000
  13868 H          33.0745   38.7892   23.6215 H      1356      M_A    0.0000
  13869 H          32.5906   38.0531   24.9573 H      1356      M_A    0.0000
  13870 H          33.2252   39.6225   26.2337 H      1356      M_A    0.0000
  13871 H          34.8261   41.6498   26.0698 H      1356      M_A    0.0000
  13872 H          36.2875   41.0652   26.1292 H      1356      M_A    0.0000
  13873 C          33.0666   40.9134   24.7112 C.3    1357      M_A    0.0000
  13874 C          33.4637   41.0952   23.3782 C.3    1357      M_A    0.0000
  13875 C          33.5148   39.8571   22.7050 C.2    1357      M_A    0.0000
  13876 N          33.8000   39.9101   21.4797 N.3    1357      M_A    0.0000
  13877 O          33.3453   38.8563   23.1834 O.2    1357      M_A    0.0000
  13878 H          32.0695   40.8979   24.8071 H      1357      M_A    0.0000
  13879 H          33.3842   41.6826   25.2719 H      1357      M_A    0.0000
  13880 H          34.3863   41.4878   23.3359 H      1357      M_A    0.0000
  13881 H          33.5785   40.6821   21.0126 H      1357      M_A    0.0000
  13882 H          33.7218   39.1136   21.0140 H      1357      M_A    0.0000
  13883 C          32.5744   42.0081   22.6609 C.3    1358      M_A    0.0000
  13884 C          31.8045   41.3684   21.6782 C.3    1358      M_A    0.0000
  13885 C          32.6358   40.6852   20.7668 C.2    1358      M_A    0.0000
  13886 N          32.0438   40.0209   19.8758 N.3    1358      M_A    0.0000
  13887 O          33.7576   40.7144   20.7714 O.2    1358      M_A    0.0000
  13888 H          32.0052   42.5008   23.3219 H      1358      M_A    0.0000
  13889 H          33.1649   42.7002   22.2377 H      1358      M_A    0.0000
  13890 H          31.2815   42.0407   21.1476 H      1358      M_A    0.0000
  13891 H          31.1972   39.6899   20.0677 H      1358      M_A    0.0000
  13892 H          32.5839   39.4830   19.3501 H      1358      M_A    0.0000
  13893 C          30.8403   40.4346   22.2590 C.3    1359      M_A    0.0000
  13894 C          30.0696   39.7680   21.2949 C.3    1359      M_A    0.0000
  13895 C          29.0047   39.0752   21.9068 C.2    1359      M_A    0.0000
  13896 N          28.2089   38.4912   21.1250 N.3    1359      M_A    0.0000
  13897 O          28.8402   38.9946   23.0139 O.2    1359      M_A    0.0000
  13898 H          31.3223   39.7958   22.8615 H      1359      M_A    0.0000
  13899 H          30.2463   40.9801   22.8561 H      1359      M_A    0.0000
  13900 H          30.6233   39.0838   20.8129 H      1359      M_A    0.0000
  13901 H          28.1049   38.8369   20.2690 H      1359      M_A    0.0000
  13902 H          27.4496   38.1343   21.5171 H      1359      M_A    0.0000
  13903 C          29.5431   40.6848   20.2843 C.3    1360      M_A    0.0000
  13904 C          29.5603   40.1459   18.9893 C.3    1360      M_A    0.0000
  13905 C          28.2957   40.2831   18.3806 C.2    1360      M_A    0.0000
  13906 N          28.2153   39.8882   17.1876 N.3    1360      M_A    0.0000
  13907 O          27.3787   40.6881   18.8847 O.2    1360      M_A    0.0000
  13908 H          28.6255   40.9819   20.5551 H      1360      M_A    0.0000
  13909 H          30.1196   41.5052   20.3224 H      1360      M_A    0.0000
  13910 H          29.7640   39.1638   19.0192 H      1360      M_A    0.0000
  13911 H          28.9844   39.9113   16.6670 H      1360      M_A    0.0000
  13912 H          27.4210   40.0821   16.7528 H      1360      M_A    0.0000
  13913 C          30.5807   40.7715   18.1488 C.3    1361      M_A    0.0000
  13914 C          31.0464   39.9289   17.1286 C.3    1361      M_A    0.0000
  13915 C          30.6988   38.5890   17.3977 C.2    1361      M_A    0.0000
  13916 N          31.0139   37.7518   16.5114 N.3    1361      M_A    0.0000
  13917 O          30.1954   38.2297   18.3339 O.2    1361      M_A    0.0000
  13918 H          30.2259   41.6364   17.7886 H      1361      M_A    0.0000
  13919 H          31.3359   41.0186   18.7615 H      1361      M_A    0.0000
  13920 H          32.0477   39.9642   17.0723 H      1361      M_A    0.0000
  13921 H          31.0723   38.0472   15.6325 H      1361      M_A    0.0000
  13922 H          30.6863   36.8944   16.6339 H      1361      M_A    0.0000
  13923 C          30.5279   40.3172   15.8174 C.3    1362      M_A    0.0000
  13924 C          29.9128   39.2586   15.1327 C.3    1362      M_A    0.0000
  13925 C          28.5383   39.5185   14.9540 C.2    1362      M_A    0.0000
  13926 N          27.8988   38.6587   14.2927 N.3    1362      M_A    0.0000
  13927 O          27.9907   40.4045   15.3714 O.2    1362      M_A    0.0000
  13928 H          29.9141   41.1016   15.9250 H      1362      M_A    0.0000
  13929 H          31.3144   40.6541   15.2933 H      1362      M_A    0.0000
  13930 H          29.9820   38.4091   15.6624 H      1362      M_A    0.0000
  13931 H          28.3620   38.1619   13.6589 H      1362      M_A    0.0000
  13932 H          27.0265   38.8839   14.0783 H      1362      M_A    0.0000
  13933 C          30.5383   39.0084   13.8347 C.3    1363      M_A    0.0000
  13934 C          30.2980   37.7150   13.3476 C.3    1363      M_A    0.0000
  13935 C          30.5009   37.6670   11.9529 C.2    1363      M_A    0.0000
  13936 N          30.3735   36.5340   11.4186 N.3    1363      M_A    0.0000
  13937 O          30.7384   38.5524   11.3057 O.2    1363      M_A    0.0000
  13938 H          30.2458   39.7140   13.1865 H      1363      M_A    0.0000
  13939 H          31.5232   39.1480   13.9664 H      1363      M_A    0.0000
  13940 H          29.3448   37.4481   13.5124 H      1363      M_A    0.0000
  13941 H          30.5491   35.7839   11.9378 H      1363      M_A    0.0000
  13942 H          30.6173   36.4804   10.5268 H      1363      M_A    0.0000
  13943 C          31.1436   36.7170   14.0017 C.3    1364      M_A    0.0000
  13944 C          32.2980   36.4067   13.2676 C.3    1364      M_A    0.0000
  13945 C          33.4227   36.3506   14.1164 C.2    1364      M_A    0.0000
  13946 N          34.5065   36.0160   13.5697 N.3    1364      M_A    0.0000
  13947 O          33.4172   36.6004   15.2104 O.2    1364      M_A    0.0000
  13948 H          31.3606   37.0262   14.9295 H      1364      M_A    0.0000
  13949 H          30.5758   35.8970   14.1115 H      1364      M_A    0.0000
  13950 H          32.4834   37.1188   12.5853 H      1364      M_A    0.0000
  13951 H          34.4667   35.4720   12.8176 H      1364      M_A    0.0000
  13952 H          35.2176   35.8683   14.1442 H      1364      M_A    0.0000
  13953 C          32.1644   35.1424   12.5446 C.3    1365      M_A    0.0000
  13954 C          32.5424   35.2360   11.1970 C.3    1365      M_A    0.0000
  13955 C          32.3844   33.9918   10.5523 C.2    1365      M_A    0.0000
  13956 N          32.6357   33.9773    9.3185 N.3    1365      M_A    0.0000
  13957 O          32.0806   33.0378   11.0589 O.2    1365      M_A    0.0000
  13958 H          32.6757   34.4302   13.0292 H      1365      M_A    0.0000
  13959 H          31.1980   34.8811   12.6128 H      1365      M_A    0.0000
  13960 H          33.5119   35.4830   11.1194 H      1365      M_A    0.0000
  13961 H          32.5189   34.7648    8.8396 H      1365      M_A    0.0000
  13962 H          32.4233   33.1930    8.8743 H      1365      M_A    0.0000
  13963 C          31.7792   36.2595   10.4835 C.3    1366      M_A    0.0000
  13964 C          31.4975   35.9101    9.1544 C.3    1366      M_A    0.0000
  13965 C          30.2165   35.3285    9.0577 C.2    1366      M_A    0.0000
  13966 N          29.8342   35.0337    7.8947 N.3    1366      M_A    0.0000
  13967 O          29.5465   35.0976    9.9277 O.2    1366      M_A    0.0000
  13968 H          30.9475   36.4705   11.0005 H      1366      M_A    0.0000
  13969 H          32.3368   37.0934   10.5084 H      1366      M_A    0.0000
  13970 H          32.1533   35.2265    8.8234 H      1366      M_A    0.0000
  13971 H          30.1725   35.5286    7.1850 H      1366      M_A    0.0000
  13972 H          28.9530   34.7593    7.8188 H      1366      M_A    0.0000
  13973 C          31.5842   37.0602    8.2552 C.3    1367      M_A    0.0000
  13974 C          30.4183   37.8402    8.2445 C.3    1367      M_A    0.0000
  13975 C          29.2761   37.0196    8.1425 C.2    1367      M_A    0.0000
  13976 N          28.1673   37.6145    8.1881 N.3    1367      M_A    0.0000
  13977 O          29.2932   35.9062    8.0039 O.2    1367      M_A    0.0000
  13978 H          32.3951   37.6003    8.4883 H      1367      M_A    0.0000
  13979 H          31.7564   36.6878    7.3394 H      1367      M_A    0.0000
  13980 H          30.4103   38.4507    7.4482 H      1367      M_A    0.0000
  13981 H          28.1206   38.4165    8.6547 H      1367      M_A    0.0000
  13982 H          27.4203   37.0692    8.2362 H      1367      M_A    0.0000
  13983 C          30.3125   38.6839    9.4345 C.3    1368      M_A    0.0000
  13984 C          29.0792   39.3450    9.5330 C.3    1368      M_A    0.0000
  13985 C          28.0161   38.4373    9.3475 C.2    1368      M_A    0.0000
  13986 N          26.8582   38.9142    9.4787 N.3    1368      M_A    0.0000
  13987 O          28.1333   37.3549    9.0755 O.2    1368      M_A    0.0000
  13988 H          30.5089   38.1327   10.2476 H      1368      M_A    0.0000
  13989 H          31.0569   39.3537    9.3705 H      1368      M_A    0.0000
  13990 H          28.9951   40.0422    8.8162 H      1368      M_A    0.0000
  13991 H          26.7485   39.6470   10.0392 H      1368      M_A    0.0000
  13992 H          26.1666   38.2984    9.4704 H      1368      M_A    0.0000
  13993 C          28.9242   40.0274   10.8172 C.3    1369      M_A    0.0000
  13994 C          27.6221   40.5017   11.0353 C.3    1369      M_A    0.0000
  13995 C          26.8557   40.4003    9.8559 C.2    1369      M_A    0.0000
  13996 N          25.6475   40.7409    9.9558 N.3    1369      M_A    0.0000
  13997 O          27.2487   40.0677    8.8589 O.2    1369      M_A    0.0000
  13998 H          29.2303   39.4196   11.5524 H      1369      M_A    0.0000
  13999 H          29.5715   40.7940   10.8074 H      1369      M_A    0.0000
  14000 H          27.6388   41.4724   11.2892 H      1369      M_A    0.0000
  14001 H          25.2360   40.6533   10.7841 H      1369      M_A    0.0000
  14002 H          25.1186   40.5673    9.2158 H      1369      M_A    0.0000
  14003 C          26.9521   39.7848   12.1198 C.3    1370      M_A    0.0000
  14004 C          26.5883   38.4754   11.7723 C.3    1370      M_A    0.0000
  14005 C          25.9370   38.4592   10.5217 C.2    1370      M_A    0.0000
  14006 N          25.6221   37.3222   10.0817 N.3    1370      M_A    0.0000
  14007 O          25.6690   39.3698    9.9232 O.2    1370      M_A    0.0000
  14008 H          27.5304   39.8093   12.9375 H      1370      M_A    0.0000
  14009 H          26.1339   40.3198   12.3462 H      1370      M_A    0.0000
  14010 H          25.9421   38.0999   12.4420 H      1370      M_A    0.0000
  14011 H          26.1353   36.5942   10.3456 H      1370      M_A    0.0000
  14012 H          25.2995   37.3023    9.2139 H      1370      M_A    0.0000
  14013 C          27.7419   37.5770   11.7371 C.3    1371      M_A    0.0000
  14014 C          27.4449   36.3203   11.1892 C.3    1371      M_A    0.0000
  14015 C          27.7275   36.3047    9.8077 C.2    1371      M_A    0.0000
  14016 N          27.5566   35.2015    9.2252 N.3    1371      M_A    0.0000
  14017 O          28.0625   37.1925    9.2087 O.2    1371      M_A    0.0000
  14018 H          28.4959   38.0278   11.2556 H      1371      M_A    0.0000
  14019 H          28.0461   37.4738   12.6877 H      1371      M_A    0.0000
  14020 H          26.4678   36.1147   11.2888 H      1371      M_A    0.0000
  14021 H          27.6500   34.4243    9.7254 H      1371      M_A    0.0000
  14022 H          27.8495   35.1609    8.3476 H      1371      M_A    0.0000
  14023 C          28.1807   35.2450   11.8534 C.3    1372      M_A    0.0000
  14024 C          28.3790   34.1246   11.0329 C.3    1372      M_A    0.0000
  14025 C          28.0121   34.4157    9.7027 C.2    1372      M_A    0.0000
  14026 N          28.2099   33.4964    8.8653 N.3    1372      M_A    0.0000
  14027 O          27.5475   35.3773    9.3584 O.2    1372      M_A    0.0000
  14028 H          29.0443   35.6074   12.2090 H      1372      M_A    0.0000
  14029 H          27.6383   34.9895   12.6581 H      1372      M_A    0.0000
  14030 H          27.8015   33.3611   11.3337 H      1372      M_A    0.0000
  14031 H          28.8938   32.8908    9.0348 H      1372      M_A    0.0000
  14032 H          28.0770   33.7256    7.9780 H      1372      M_A    0.0000
  14033 C          29.7642   33.6568   11.0694 C.3    1373      M_A    0.0000
  14034 C          29.9407   32.4095   10.4522 C.3    1373      M_A    0.0000
  14035 C          28.7318   31.9685    9.8754 C.2    1373      M_A    0.0000
  14036 N          28.7916   30.8844    9.2377 N.3    1373      M_A    0.0000
  14037 O          27.7450   32.4950    9.9661 O.2    1373      M_A    0.0000
  14038 H          30.3595   34.3588   10.6741 H      1373      M_A    0.0000
  14039 H          30.0150   33.5984   12.0392 H      1373      M_A    0.0000
  14040 H          30.2107   31.7177   11.1270 H      1373      M_A    0.0000
  14041 H          29.6022   30.6503    8.8489 H      1373      M_A    0.0000
  14042 H          28.0295   30.6537    8.7650 H      1373      M_A    0.0000
  14043 C          30.9874   32.4464    9.4314 C.3    1374      M_A    0.0000
  14044 C          31.3177   31.1766    8.9351 C.3    1374      M_A    0.0000
  14045 C          30.6023   30.9083    7.7498 C.2    1374      M_A    0.0000
  14046 N          30.8704   29.8167    7.1823 N.3    1374      M_A    0.0000
  14047 O          29.8163   31.5755    7.3068 O.2    1374      M_A    0.0000
  14048 H          30.7136   33.0752    8.7013 H      1374      M_A    0.0000
  14049 H          31.7892   32.8639    9.8669 H      1374      M_A    0.0000
  14050 H          31.0654   30.4639    9.5950 H      1374      M_A    0.0000
  14051 H          31.7199   29.4597    7.3009 H      1374      M_A    0.0000
  14052 H          30.4873   29.6926    6.3484 H      1374      M_A    0.0000
  14053 C          32.7523   31.0422    8.6842 C.3    1375      M_A    0.0000
  14054 C          33.4209   30.3197    9.6835 C.3    1375      M_A    0.0000
  14055 C          34.7781   30.1452    9.3424 C.2    1375      M_A    0.0000
  14056 N          35.4894   29.5621   10.2024 N.3    1375      M_A    0.0000
  14057 O          35.2444   30.4628    8.3724 O.2    1375      M_A    0.0000
  14058 H          32.8920   30.6438    7.7757 H      1375      M_A    0.0000
  14059 H          33.1167   31.9758    8.6335 H      1375      M_A    0.0000
  14060 H          33.0248   29.4027    9.7799 H      1375      M_A    0.0000
  14061 H          35.2421   29.6337   11.0951 H      1375      M_A    0.0000
  14062 H          36.3990   29.5492   10.0297 H      1375      M_A    0.0000
  14063 C          33.3223   30.9705   10.9895 C.3    1376      M_A    0.0000
  14064 C          33.7024   30.1358   12.0510 C.3    1376      M_A    0.0000
  14065 C          33.8178   28.8006   11.6123 C.2    1376      M_A    0.0000
  14066 N          34.2171   27.9728   12.4730 N.3    1376      M_A    0.0000
  14067 O          33.5616   28.4366   10.5822 O.2    1376      M_A    0.0000
  14068 H          33.8499   31.8219   10.9740 H      1376      M_A    0.0000
  14069 H          32.3626   31.2441   11.0947 H      1376      M_A    0.0000
  14070 H          33.0062   30.1457   12.7735 H      1376      M_A    0.0000
  14071 H          34.7624   28.2836   13.1580 H      1376      M_A    0.0000
  14072 H          34.4018   27.1222   12.1572 H      1376      M_A    0.0000
  14073 C          34.9612   30.5633   12.6606 C.3    1377      M_A    0.0000
  14074 C          35.5874   31.6042   11.9592 C.3    1377      M_A    0.0000
  14075 C          36.1503   31.1225   10.7593 C.2    1377      M_A    0.0000
  14076 N          36.6849   31.9884   10.0176 N.3    1377      M_A    0.0000
  14077 O          36.1716   30.0456   10.4446 O.2    1377      M_A    0.0000
  14078 H          34.7984   30.8018   13.6199 H      1377      M_A    0.0000
  14079 H          35.5544   29.7541   12.6758 H      1377      M_A    0.0000
  14080 H          36.3399   31.9901   12.4994 H      1377      M_A    0.0000
  14081 H          36.3642   32.8592   10.0614 H      1377      M_A    0.0000
  14082 H          36.9515   31.6922    9.1817 H      1377      M_A    0.0000
  14083 C          34.6641   32.6993   11.6639 C.3    1378      M_A    0.0000
  14084 C          35.2902   33.8002   11.0606 C.3    1378      M_A    0.0000
  14085 C          36.6335   33.8947   11.4790 C.2    1378      M_A    0.0000
  14086 N          37.3103   34.8140   10.9477 N.3    1378      M_A    0.0000
  14087 O          37.1160   33.2369   12.2495 O.2    1378      M_A    0.0000
  14088 H          33.9048   32.3502   11.1115 H      1378      M_A    0.0000
  14089 H          34.2622   32.9717   12.5420 H      1378      M_A    0.0000
  14090 H          34.8396   34.6544   11.3329 H      1378      M_A    0.0000
  14091 H          37.0698   35.0973   10.0962 H      1378      M_A    0.0000
  14092 H          38.2171   34.8051   11.1349 H      1378      M_A    0.0000
  14093 C          35.2340   33.7306    9.6008 C.3    1379      M_A    0.0000
  14094 C          35.2401   32.4159    9.1114 C.3    1379      M_A    0.0000
  14095 C          34.1291   31.7005    9.6038 C.2    1379      M_A    0.0000
  14096 N          34.0009   30.5234    9.1756 N.3    1379      M_A    0.0000
  14097 O          33.3879   32.0945   10.3485 O.2    1379      M_A    0.0000
  14098 H          34.4398   34.2481    9.2766 H      1379      M_A    0.0000
  14099 H          36.0397   34.2255    9.2652 H      1379      M_A    0.0000
  14100 H          36.0608   31.9286    9.4212 H      1379      M_A    0.0000
  14101 H          34.3442   30.3243    8.3356 H      1379      M_A    0.0000
  14102 H          33.2136   30.0947    9.4079 H      1379      M_A    0.0000
  14103 C          35.2419   32.3753    7.6494 C.3    1380      M_A    0.0000
  14104 C          36.4194   31.8315    7.1150 C.3    1380      M_A    0.0000
  14105 C          36.2232   31.4545    5.7704 C.2    1380      M_A    0.0000
  14106 N          37.2380   31.0109    5.1713 N.3    1380      M_A    0.0000
  14107 O          35.2439   31.5016    5.2245 O.2    1380      M_A    0.0000
  14108 H          34.4259   31.8883    7.3323 H      1380      M_A    0.0000
  14109 H          35.1319   33.3243    7.3424 H      1380      M_A    0.0000
  14110 H          36.6826   31.0019    7.6145 H      1380      M_A    0.0000
  14111 H          38.0739   31.3028    5.4528 H      1380      M_A    0.0000
  14112 H          37.1385   30.8716    4.2612 H      1380      M_A    0.0000
  14113 C          37.5435   32.7628    7.2052 C.3    1381      M_A    0.0000
  14114 C          38.3224   32.5761    8.3567 C.3    1381      M_A    0.0000
  14115 C          38.6750   33.8193    8.9213 C.2    1381      M_A    0.0000
  14116 N          39.3242   33.7681    9.9990 N.3    1381      M_A    0.0000
  14117 O          38.4408   34.8205    8.4719 O.2    1381      M_A    0.0000
  14118 H          38.0903   32.7012    6.3680 H      1381      M_A    0.0000
  14119 H          37.1452   33.6838    7.2057 H      1381      M_A    0.0000
  14120 H          39.1794   32.1059    8.1298 H      1381      M_A    0.0000
  14121 H          39.2020   33.0286   10.5479 H      1381      M_A    0.0000
  14122 H          39.4561   34.5784   10.4276 H      1381      M_A    0.0000
  14123 C          37.6354   31.7595    9.3568 C.3    1382      M_A    0.0000
  14124 C          38.3153   30.5701    9.6582 C.3    1382      M_A    0.0000
  14125 C          39.0112   30.6947   10.8783 C.2    1382      M_A    0.0000
  14126 N          39.6073   29.6601   11.2781 N.3    1382      M_A    0.0000
  14127 O          39.0844   31.6359   11.4849 O.2    1382      M_A    0.0000
  14128 H          37.4666   32.3129   10.1745 H      1382      M_A    0.0000
  14129 H          36.7311   31.5508    8.9752 H      1382      M_A    0.0000
  14130 H          38.9991   30.3667    8.9524 H      1382      M_A    0.0000
  14131 H          39.2691   28.8340   11.0206 H      1382      M_A    0.0000
  14132 H          39.9667   29.7074   12.1302 H      1382      M_A    0.0000
  14133 C          37.4104   29.4230    9.7236 C.3    1383      M_A    0.0000
  14134 C          37.6503   28.5946   10.8299 C.3    1383      M_A    0.0000
  14135 C          36.8557   28.9912   11.9253 C.2    1383      M_A    0.0000
  14136 N          36.9449   28.2737   12.9562 N.3    1383      M_A    0.0000
  14137 O          36.1870   29.8921   11.9433 O.2    1383      M_A    0.0000
  14138 H          36.4633   29.7485    9.6968 H      1383      M_A    0.0000
  14139 H          37.5479   28.9084    8.8732 H      1383      M_A    0.0000
  14140 H          38.6072   28.6669   11.1231 H      1383      M_A    0.0000
  14141 H          37.1696   27.3788   12.8475 H      1383      M_A    0.0000
  14142 H          36.3417   28.4648   13.6323 H      1383      M_A    0.0000
  14143 C          37.3990   27.1864   10.5250 C.3    1384      M_A    0.0000
  14144 C          36.0781   26.7934   10.7865 C.3    1384      M_A    0.0000
  14145 C          35.7974   26.8915   12.1650 C.2    1384      M_A    0.0000
  14146 N          34.6153   26.6221   12.5048 N.3    1384      M_A    0.0000
  14147 O          36.5447   27.1634   12.9568 O.2    1384      M_A    0.0000
  14148 H          37.6648   27.0022    9.5769 H      1384      M_A    0.0000
  14149 H          38.0336   26.6584   11.0954 H      1384      M_A    0.0000
  14150 H          35.9385   25.8337   10.5286 H      1384      M_A    0.0000
  14151 H          33.9391   26.7640   11.8836 H      1384      M_A    0.0000
  14152 H          34.4017   26.7961   13.3889 H      1384      M_A    0.0000
  14153 C          35.1101   27.5873   10.0304 C.3    1385      M_A    0.0000
  14154 C          34.5802   26.9038    8.9259 C.3    1385      M_A    0.0000
  14155 C          33.2133   27.2108    8.7647 C.2    1385      M_A    0.0000
  14156 N          32.6506   26.6988    7.7612 N.3    1385      M_A    0.0000
  14157 O          32.6083   27.8444    9.4659 O.2    1385      M_A    0.0000
  14158 H          34.3932   27.9110   10.6507 H      1385      M_A    0.0000
  14159 H          35.5991   28.4081    9.7238 H      1385      M_A    0.0000
  14160 H          34.6415   25.9117    9.0631 H      1385      M_A    0.0000
  14161 H          33.1731   26.5088    7.0169 H      1385      M_A    0.0000
  14162 H          31.7881   26.9902    7.5920 H      1385      M_A    0.0000
  14163 C          35.3020   27.2130    7.6921 C.3    1386      M_A    0.0000
  14164 C          34.6168   28.1145    6.8641 C.3    1386      M_A    0.0000
  14165 C          33.8710   29.0271    7.6384 C.2    1386      M_A    0.0000
  14166 N          33.2647   29.9244    6.9960 N.3    1386      M_A    0.0000
  14167 O          33.7682   28.9909    8.7552 O.2    1386      M_A    0.0000
  14168 H          36.2215   27.5380    7.9210 H      1386      M_A    0.0000
  14169 H          35.4305   26.3391    7.2159 H      1386      M_A    0.0000
  14170 H          33.9634   27.6278    6.2782 H      1386      M_A    0.0000
  14171 H          33.6175   30.1910    6.1790 H      1386      M_A    0.0000
  14172 H          32.8706   30.5882    7.5075 H      1386      M_A    0.0000
  14173 C          35.5244   28.8461    5.9810 C.3    1387      M_A    0.0000
  14174 C          35.4150   28.4603    4.6368 C.3    1387      M_A    0.0000
  14175 C          34.6187   27.3026    4.5185 C.2    1387      M_A    0.0000
  14176 N          34.4013   26.9037    3.3441 N.3    1387      M_A    0.0000
  14177 O          34.1988   26.7188    5.3800 O.2    1387      M_A    0.0000
  14178 H          35.3799   29.8300    6.1021 H      1387      M_A    0.0000
  14179 H          36.4518   28.6616    6.3167 H      1387      M_A    0.0000
  14180 H          36.3173   28.2327    4.2612 H      1387      M_A    0.0000
  14181 H          34.4070   27.5332    2.6609 H      1387      M_A    0.0000
  14182 H          33.7880   26.2149    3.2607 H      1387      M_A    0.0000
  14183 C          34.8589   29.5263    3.8041 C.3    1388      M_A    0.0000
  14184 C          35.7503   29.9781    2.8196 C.3    1388      M_A    0.0000
  14185 C          35.0602   30.2689    1.6247 C.2    1388      M_A    0.0000
  14186 N          35.7576   30.7441    0.6901 N.3    1388      M_A    0.0000
  14187 O          33.9665   30.0871    1.4518 O.2    1388      M_A    0.0000
  14188 H          33.9904   29.2183    3.4112 H      1388      M_A    0.0000
  14189 H          34.6270   30.2773    4.4278 H      1388      M_A    0.0000
  14190 H          36.4237   29.2669    2.6012 H      1388      M_A    0.0000
  14191 H          36.5179   31.2284    0.9150 H      1388      M_A    0.0000
  14192 H          35.2881   31.0406   -0.0509 H      1388      M_A    0.0000
  14193 C          36.4966   31.1578    3.2556 C.3    1389      M_A    0.0000
  14194 C          36.1043   32.3324    2.5966 C.3    1389      M_A    0.0000
  14195 C          34.8751   32.1392    1.9330 C.2    1389      M_A    0.0000
  14196 N          34.3964   33.1525    1.3589 N.3    1389      M_A    0.0000
  14197 O          34.3252   31.1633    1.8668 O.2    1389      M_A    0.0000
  14198 H          36.4244   31.2440    4.2511 H      1389      M_A    0.0000
  14199 H          37.4628   30.9643    3.0662 H      1389      M_A    0.0000
  14200 H          36.7769   32.5845    1.8959 H      1389      M_A    0.0000
  14201 H          34.6123   33.9898    1.6985 H      1389      M_A    0.0000
  14202 H          33.5390   33.0562    1.0224 H      1389      M_A    0.0000
  14203 C          35.9943   33.4654    3.5148 C.3    1390      M_A    0.0000
  14204 C          35.4194   34.6000    2.9232 C.3    1390      M_A    0.0000
  14205 C          34.2755   34.2432    2.1797 C.2    1390      M_A    0.0000
  14206 N          33.6420   35.1971    1.6559 N.3    1390      M_A    0.0000
  14207 O          33.9185   33.1928    2.0112 O.2    1390      M_A    0.0000
  14208 H          35.4971   33.1774    4.3354 H      1390      M_A    0.0000
  14209 H          36.9281   33.6723    3.8181 H      1390      M_A    0.0000
  14210 H          36.0622   35.0266    2.2815 H      1390      M_A    0.0000
  14211 H          33.6854   36.0287    2.0677 H      1390      M_A    0.0000
  14212 H          32.8318   34.9754    1.2660 H      1390      M_A    0.0000
  14213 C          35.0641   35.6147    3.9147 C.3    1391      M_A    0.0000
  14214 C          35.1602   36.9244    3.4214 C.3    1391      M_A    0.0000
  14215 C          33.9036   37.3739    2.9660 C.2    1391      M_A    0.0000
  14216 N          33.8614   38.5647    2.5589 N.3    1391      M_A    0.0000
  14217 O          32.9726   36.7488    2.9230 O.2    1391      M_A    0.0000
  14218 H          34.1515   35.4161    4.2770 H      1391      M_A    0.0000
  14219 H          35.6975   35.4900    4.6829 H      1391      M_A    0.0000
  14220 H          35.7842   36.9600    2.6363 H      1391      M_A    0.0000
  14221 H          34.4675   39.1707    2.9173 H      1391      M_A    0.0000
  14222 H          33.0173   38.8945    2.3682 H      1391      M_A    0.0000
  14223 C          35.6793   37.8518    4.4260 C.3    1392      M_A    0.0000
  14224 C          34.6870   38.6718    4.9836 C.3    1392      M_A    0.0000
  14225 C          33.9548   37.9661    5.9605 C.2    1392      M_A    0.0000
  14226 N          33.0763   38.6287    6.5727 N.3    1392      M_A    0.0000
  14227 O          34.0859   36.8783    6.2028 O.2    1392      M_A    0.0000
  14228 H          36.1763   37.3352    5.1258 H      1392      M_A    0.0000
  14229 H          36.3672   38.4141    3.9597 H      1392      M_A    0.0000
  14230 H          34.0318   38.9597    4.2802 H      1392      M_A    0.0000
  14231 H          33.2029   39.5448    6.6614 H      1392      M_A    0.0000
  14232 H          32.6761   38.1998    7.2892 H      1392      M_A    0.0000
  14233 C          35.2477   39.8874    5.5726 C.3    1393      M_A    0.0000
  14234 C          35.1891   40.9939    4.7124 C.3    1393      M_A    0.0000
  14235 C          33.8526   41.2778    4.3634 C.2    1393      M_A    0.0000
  14236 N          33.6782   42.2950    3.6420 N.3    1393      M_A    0.0000
  14237 O          32.9643   40.6596    4.6596 O.2    1393      M_A    0.0000
  14238 H          34.7954   40.0681    6.4480 H      1393      M_A    0.0000
  14239 H          36.2029   39.6761    5.7957 H      1393      M_A    0.0000
  14240 H          35.6787   40.8019    3.8578 H      1393      M_A    0.0000
  14241 H          34.2971   42.9852    3.7030 H      1393      M_A    0.0000
  14242 H          32.7971   42.5464    3.5081 H      1393      M_A    0.0000
  14243 C          35.8053   42.1811    5.3039 C.3    1394      M_A    0.0000
  14244 C          36.3134   43.0725    4.3473 C.3    1394      M_A    0.0000
  14245 C          37.6449   42.7412    4.0218 C.2    1394      M_A    0.0000
  14246 N          38.1801   43.4410    3.1221 N.3    1394      M_A    0.0000
  14247 O          38.2467   41.9329    4.5154 O.2    1394      M_A    0.0000
  14248 H          35.1474   42.6231    5.9167 H      1394      M_A    0.0000
  14249 H          36.5474   41.8486    5.8917 H      1394      M_A    0.0000
  14250 H          36.3265   44.0082    4.7097 H      1394      M_A    0.0000
  14251 H          37.6283   43.8239    2.4802 H      1394      M_A    0.0000
  14252 H          39.0098   43.1526    2.8290 H      1394      M_A    0.0000
  14253 C          35.5009   43.0934    3.1314 C.3    1395      M_A    0.0000
  14254 C          36.2299   43.4523    1.9879 C.3    1395      M_A    0.0000
  14255 C          36.7908   44.7368    2.1430 C.2    1395      M_A    0.0000
  14256 N          37.5213   45.1343    1.1974 N.3    1395      M_A    0.0000
  14257 O          36.6136   45.4157    3.0187 O.2    1395      M_A    0.0000
  14258 H          35.0460   42.2074    3.0239 H      1395      M_A    0.0000
  14259 H          34.7687   43.7598    3.2949 H      1395      M_A    0.0000
  14260 H          35.6289   43.4921    1.1853 H      1395      M_A    0.0000
  14261 H          37.9626   44.4950    0.6879 H      1395      M_A    0.0000
  14262 H          37.9795   45.9247    1.3485 H      1395      M_A    0.0000
  14263 C          37.2870   42.4876    1.6866 C.3    1396      M_A    0.0000
  14264 C          36.9500   41.6080    0.6471 C.3    1396      M_A    0.0000
  14265 C          37.0690   42.2514   -0.6021 C.2    1396      M_A    0.0000
  14266 N          36.8505   41.5324   -1.6125 N.3    1396      M_A    0.0000
  14267 O          37.3157   43.3364   -0.7470 O.2    1396      M_A    0.0000
  14268 H          38.1391   42.9802    1.5002 H      1396      M_A    0.0000
  14269 H          37.4469   41.9733    2.5332 H      1396      M_A    0.0000
  14270 H          35.9951   41.3116    0.7322 H      1396      M_A    0.0000
  14271 H          37.0156   40.6207   -1.5439 H      1396      M_A    0.0000
  14272 H          37.0392   41.9218   -2.4312 H      1396      M_A    0.0000
  14273 C          37.7775   40.4022    0.6596 C.3    1397      M_A    0.0000
  14274 C          37.0716   39.2537    1.0476 C.3    1397      M_A    0.0000
  14275 C          36.1404   38.8873    0.0539 C.2    1397      M_A    0.0000
  14276 N          35.4938   37.8289    0.2715 N.3    1397      M_A    0.0000
  14277 O          35.9292   39.4743   -0.8788 O.2    1397      M_A    0.0000
  14278 H          38.2115   40.2912   -0.2364 H      1397      M_A    0.0000
  14279 H          38.5239   40.5809    1.3059 H      1397      M_A    0.0000
  14280 H          36.5489   39.4281    1.8862 H      1397      M_A    0.0000
  14281 H          35.8917   37.1741    0.7968 H      1397      M_A    0.0000
  14282 H          34.9682   37.5280   -0.4290 H      1397      M_A    0.0000
  14283 C          37.9643   38.1285    1.3231 C.3    1398      M_A    0.0000
  14284 C          38.6210   38.2361    2.5581 C.3    1398      M_A    0.0000
  14285 C          37.7069   38.5807    3.5750 C.2    1398      M_A    0.0000
  14286 N          38.1800   38.6419    4.7403 N.3    1398      M_A    0.0000
  14287 O          36.6225   38.8194    3.4126 O.2    1398      M_A    0.0000
  14288 H          37.4495   37.2727    1.2450 H      1398      M_A    0.0000
  14289 H          38.6357   38.1141    0.5775 H      1398      M_A    0.0000
  14290 H          39.3110   38.9641    2.5278 H      1398      M_A    0.0000
  14291 H          38.9176   38.1139    4.9407 H      1398      M_A    0.0000
  14292 H          37.5611   38.7550    5.4199 H      1398      M_A    0.0000
  14293 C          39.3149   37.0004    2.9193 C.3    1399      M_A    0.0000
  14294 C          39.7990   37.0052    4.2359 C.3    1399      M_A    0.0000
  14295 C          39.5490   38.2500    4.8494 C.2    1399      M_A    0.0000
  14296 N          39.8870   38.3434    6.0587 N.3    1399      M_A    0.0000
  14297 O          39.1027   39.1428    4.3366 O.2    1399      M_A    0.0000
  14298 H          38.7113   36.2203    2.7441 H      1399      M_A    0.0000
  14299 H          40.0774   36.9079    2.2735 H      1399      M_A    0.0000
  14300 H          40.7933   36.8701    4.2460 H      1399      M_A    0.0000
  14301 H          39.8956   37.5685    6.5710 H      1399      M_A    0.0000
  14302 H          39.6204   39.1172    6.4919 H      1399      M_A    0.0000
  14303 C          39.2112   35.9342    5.0399 C.3    1400      M_A    0.0000
  14304 C          40.1696   35.1552    5.7050 C.3    1400      M_A    0.0000
  14305 C          39.6732   34.7190    6.9507 C.2    1400      M_A    0.0000
  14306 N          40.4309   33.9565    7.6067 N.3    1400      M_A    0.0000
  14307 O          38.6855   35.0182    7.3912 O.2    1400      M_A    0.0000
  14308 H          38.5417   36.3272    5.6732 H      1400      M_A    0.0000
  14309 H          38.6853   35.3628    4.4044 H      1400      M_A    0.0000
  14310 H          40.9939   35.6957    5.8931 H      1400      M_A    0.0000
  14311 H          41.0303   33.4255    7.1357 H      1400      M_A    0.0000
  14312 H          40.0611   33.5800    8.3676 H      1400      M_A    0.0000
  14313 C          40.5848   34.0001    4.9097 C.3    1401      M_A    0.0000
  14314 C          41.9681   33.9576    4.6808 C.3    1401      M_A    0.0000
  14315 C          42.6736   34.2884    5.8562 C.2    1401      M_A    0.0000
  14316 N          43.9286   34.2195    5.7807 N.3    1401      M_A    0.0000
  14317 O          42.2019   34.6216    6.8183 O.2    1401      M_A    0.0000
  14318 H          40.2506   33.1625    5.3459 H      1401      M_A    0.0000
  14319 H          40.0944   34.0696    4.0371 H      1401      M_A    0.0000
  14320 H          42.2307   34.6308    3.9845 H      1401      M_A    0.0000
  14321 H          44.2975   33.6221    5.1722 H      1401      M_A    0.0000
  14322 H          44.3856   34.3246    6.5792 H      1401      M_A    0.0000
  14323 C          42.4039   32.6474    4.1985 C.3    1402      M_A    0.0000
  14324 C          42.1898   32.4674    2.8239 C.3    1402      M_A    0.0000
  14325 C          42.9562   31.3860    2.3423 C.2    1402      M_A    0.0000
  14326 N          42.7918   31.0946    1.1284 N.3    1402      M_A    0.0000
  14327 O          43.6980   30.8018    2.9485 O.2    1402      M_A    0.0000
  14328 H          43.3630   32.5058    4.4508 H      1402      M_A    0.0000
  14329 H          41.8799   31.9684    4.7193 H      1402      M_A    0.0000
  14330 H          42.4803   33.2806    2.3128 H      1402      M_A    0.0000
  14331 H          41.9707   31.2893    0.7397 H      1402      M_A    0.0000
  14332 H          43.2060   30.3175    0.8420 H      1402      M_A    0.0000
  14333 C          40.7779   32.2457    2.5135 C.3    1403      M_A    0.0000
  14334 C          40.5707   31.1869    1.6170 C.3    1403      M_A    0.0000
  14335 C          41.7931   30.7770    1.0458 C.2    1403      M_A    0.0000
  14336 N          41.7318   29.7867    0.2706 N.3    1403      M_A    0.0000
  14337 O          42.7831   31.2773    1.2154 O.2    1403      M_A    0.0000
  14338 H          40.2687   32.1201    3.3670 H      1403      M_A    0.0000
  14339 H          40.4402   33.1030    2.1161 H      1403      M_A    0.0000
  14340 H          39.9785   31.4767    0.8605 H      1403      M_A    0.0000
  14341 H          41.0538   29.1664    0.4071 H      1403      M_A    0.0000
  14342 H          42.5454   29.4476   -0.0134 H      1403      M_A    0.0000
  14343 C          39.9208   30.0446    2.2587 C.3    1404      M_A    0.0000
  14344 C          40.8299   29.0796    2.7170 C.3    1404      M_A    0.0000
  14345 C          41.4413   29.5063    3.9140 C.2    1404      M_A    0.0000
  14346 N          42.2320   28.6853    4.4491 N.3    1404      M_A    0.0000
  14347 O          41.2900   30.5100    4.3924 O.2    1404      M_A    0.0000
  14348 H          39.3227   30.3748    2.9914 H      1404      M_A    0.0000
  14349 H          39.3132   29.6434    1.5683 H      1404      M_A    0.0000
  14350 H          41.5647   28.9421    2.0477 H      1404      M_A    0.0000
  14351 H          42.0881   27.7797    4.3003 H      1404      M_A    0.0000
  14352 H          42.5440   28.9173    5.2896 H      1404      M_A    0.0000
  14353 C          40.1910   27.7809    2.9275 C.3    1405      M_A    0.0000
  14354 C          40.7326   26.7644    2.1267 C.3    1405      M_A    0.0000
  14355 C          41.7611   26.0886    2.8152 C.2    1405      M_A    0.0000
  14356 N          42.2762   25.1117    2.2104 N.3    1405      M_A    0.0000
  14357 O          42.1532   26.3726    3.8275 O.2    1405      M_A    0.0000
  14358 H          40.2264   27.5503    3.9017 H      1405      M_A    0.0000
  14359 H          39.2195   27.9079    2.7106 H      1405      M_A    0.0000
  14360 H          41.1431   27.1510    1.2966 H      1405      M_A    0.0000
  14361 H          41.7524   24.6532    1.5952 H      1405      M_A    0.0000
  14362 H          42.8687   24.5999    2.7050 H      1405      M_A    0.0000
  14363 C          39.7159   25.8048    1.6971 C.3    1406      M_A    0.0000
  14364 C          39.6712   24.6541    2.4981 C.2    1406      M_A    0.0000
  14365 C          38.7521   24.8231    3.5542 C.2    1406      M_A    0.0000
  14366 N          38.5850   23.8234    4.3013 N.3    1406      M_A    0.0000
  14367 O          38.1948   25.7711    3.7777 O.2    1406      M_A    0.0000
  14368 H          38.8272   26.2649    1.6510 H      1406      M_A    0.0000
  14369 H          39.9459   25.5567    0.7524 H      1406      M_A    0.0000
  14370 H          40.5668   24.4812    2.9164 H      1406      M_A    0.0000
  14371 H          38.7235   22.9792    3.9390 H      1406      M_A    0.0000
  14372 H          37.9013   23.8951    4.9217 H      1406      M_A    0.0000
  14373 C          61.0100   36.1762   44.1916 C.2    1407      M_A    0.0000
  14374 C          60.2498   34.9118   44.0164 C.3    1407      M_A    0.0000
  14375 C          60.2691   34.1110   45.2770 C.2    1407      M_A    0.0000
  14376 N          59.5595   32.9818   45.2591 N.3    1407      M_A    0.0000
  14377 O          60.8785   34.3956   46.2569 O.2    1407      M_A    0.0000
  14378 H          60.4909   36.8708   44.8031 H      1407      M_A    0.0000
  14379 H          61.1393   36.6559   43.2521 H      1407      M_A    0.0000
  14380 H          60.6954   34.3101   43.2620 H      1407      M_A    0.0000
  14381 H          58.7801   32.9346   44.6603 H      1407      M_A    0.0000
  14382 H          59.4732   32.5197   46.1199 H      1407      M_A    0.0000
  14383 C          58.7842   35.1703   43.5864 C.3    1408      M_A    0.0000
  14384 C          58.6676   36.1345   42.4620 C.3    1408      M_A    0.0000
  14385 C          59.2230   35.5444   41.2073 C.2    1408      M_A    0.0000
  14386 N          59.1110   36.2969   40.1119 N.3    1408      M_A    0.0000
  14387 O          59.7643   34.4890   41.1311 O.2    1408      M_A    0.0000
  14388 H          58.3167   34.2438   43.3658 H      1408      M_A    0.0000
  14389 H          58.2856   35.5505   44.4445 H      1408      M_A    0.0000
  14390 H          59.2297   37.0135   42.6645 H      1408      M_A    0.0000
  14391 H          58.3646   36.9364   40.0642 H      1408      M_A    0.0000
  14392 H          59.3642   35.8629   39.2696 H      1408      M_A    0.0000
  14393 C          57.2016   36.5755   42.2251 C.3    1409      M_A    0.0000
  14394 C          57.0241   37.3657   40.9794 C.3    1409      M_A    0.0000
  14395 C          56.6076   36.4786   39.8523 C.2    1409      M_A    0.0000
  14396 N          56.3525   37.0905   38.6950 N.3    1409      M_A    0.0000
  14397 O          56.5160   35.2952   39.9133 O.2    1409      M_A    0.0000
  14398 H          56.5724   35.7214   42.2472 H      1409      M_A    0.0000
  14399 H          56.9274   37.1605   43.0689 H      1409      M_A    0.0000
  14400 H          57.9411   37.8197   40.6919 H      1409      M_A    0.0000
  14401 H          56.0439   38.0244   38.7235 H      1409      M_A    0.0000
  14402 H          55.9642   36.5271   37.9922 H      1409      M_A    0.0000
  14403 C          55.9881   38.5036   41.1564 C.3    1410      M_A    0.0000
  14404 C          54.7134   38.2492   40.4366 C.3    1410      M_A    0.0000
  14405 C          54.0004   37.0801   41.0329 C.2    1410      M_A    0.0000
  14406 N          52.8067   36.7984   40.5089 N.3    1410      M_A    0.0000
  14407 O          54.4277   36.3910   41.9019 O.2    1410      M_A    0.0000
  14408 H          55.8324   38.6758   42.1918 H      1410      M_A    0.0000
  14409 H          56.4480   39.3851   40.7810 H      1410      M_A    0.0000
  14410 H          54.9016   38.0091   39.4184 H      1410      M_A    0.0000
  14411 H          52.2912   37.5352   40.1094 H      1410      M_A    0.0000
  14412 H          52.2877   36.1107   40.9775 H      1410      M_A    0.0000
  14413 C          53.7829   39.4876   40.4483 C.3    1411      M_A    0.0000
  14414 C          52.7133   39.4234   39.4191 C.3    1411      M_A    0.0000
  14415 C          51.8557   38.2189   39.6306 C.2    1411      M_A    0.0000
  14416 N          50.8172   38.0925   38.8033 N.3    1411      M_A    0.0000
  14417 O          52.0490   37.3788   40.4487 O.2    1411      M_A    0.0000
  14418 H          53.3881   39.6181   41.4245 H      1411      M_A    0.0000
  14419 H          54.4070   40.3297   40.2721 H      1411      M_A    0.0000
  14420 H          53.1352   39.3348   38.4476 H      1411      M_A    0.0000
  14421 H          50.4268   38.9114   38.4223 H      1411      M_A    0.0000
  14422 H          50.1878   37.3714   39.0174 H      1411      M_A    0.0000
  14423 C          51.8311   40.6967   39.4184 C.3    1412      M_A    0.0000
  14424 C          51.9588   41.4943   38.1714 C.3    1412      M_A    0.0000
  14425 C          50.8727   41.1387   37.2097 C.2    1412      M_A    0.0000
  14426 N          50.8464   41.8420   36.0768 N.3    1412      M_A    0.0000
  14427 O          50.0701   40.2778   37.3748 O.2    1412      M_A    0.0000
  14428 H          50.8247   40.4241   39.6147 H      1412      M_A    0.0000
  14429 H          52.1437   41.2751   40.2535 H      1412      M_A    0.0000
  14430 H          52.8810   41.2836   37.6867 H      1412      M_A    0.0000
  14431 H          51.2074   42.7573   36.0919 H      1412      M_A    0.0000
  14432 H          50.0659   41.6935   35.5017 H      1412      M_A    0.0000
  14433 C          51.9284   43.0176   38.4508 C.3    1413      M_A    0.0000
  14434 C          50.5652   43.5294   38.7463 C.3    1413      M_A    0.0000
  14435 C          49.6616   42.4097   39.1470 C.2    1413      M_A    0.0000
  14436 N          48.4246   42.7598   39.5021 N.3    1413      M_A    0.0000
  14437 O          49.9591   41.2590   39.1456 O.2    1413      M_A    0.0000
  14438 H          52.6150   43.2437   39.2276 H      1413      M_A    0.0000
  14439 H          52.3119   43.4874   37.5780 H      1413      M_A    0.0000
  14440 H          50.1385   43.9754   37.8810 H      1413      M_A    0.0000
  14441 H          48.2883   43.6585   39.8789 H      1413      M_A    0.0000
  14442 H          47.8711   42.0433   39.8792 H      1413      M_A    0.0000
  14443 C          50.5787   44.6100   39.8562 C.3    1414      M_A    0.0000
  14444 C          49.2783   44.7359   40.5637 C.3    1414      M_A    0.0000
  14445 C          49.4926   44.8326   42.0387 C.2    1414      M_A    0.0000
  14446 N          48.3956   45.0171   42.7744 N.3    1414      M_A    0.0000
  14447 O          50.5444   44.7336   42.5832 O.2    1414      M_A    0.0000
  14448 H          51.3780   44.4126   40.5255 H      1414      M_A    0.0000
  14449 H          50.8214   45.5263   39.3757 H      1414      M_A    0.0000
  14450 H          48.6771   43.8757   40.3952 H      1414      M_A    0.0000
  14451 H          47.6319   45.4779   42.3589 H      1414      M_A    0.0000
  14452 H          48.5472   45.2011   43.7258 H      1414      M_A    0.0000
  14453 C          48.4674   45.9616   40.0742 C.3    1415      M_A    0.0000
  14454 C          47.0060   45.8243   40.3050 C.3    1415      M_A    0.0000
  14455 C          46.3434   47.1625   40.2723 C.2    1415      M_A    0.0000
  14456 N          45.0160   47.1569   40.4014 N.3    1415      M_A    0.0000
  14457 O          46.9099   48.2019   40.1665 O.2    1415      M_A    0.0000
  14458 H          48.8596   46.8405   40.5209 H      1415      M_A    0.0000
  14459 H          48.6642   46.0516   39.0336 H      1415      M_A    0.0000
  14460 H          46.8174   45.4102   41.2655 H      1415      M_A    0.0000
  14461 H          44.5250   46.3594   40.0994 H      1415      M_A    0.0000
  14462 H          44.5709   48.0193   40.2592 H      1415      M_A    0.0000
  14463 C          46.3397   44.8880   39.2662 C.3    1416      M_A    0.0000
  14464 C          45.0641   45.4276   38.7282 C.3    1416      M_A    0.0000
  14465 C          45.0621   46.9201   38.7854 C.2    1416      M_A    0.0000
  14466 N          43.9907   47.5201   38.2650 N.3    1416      M_A    0.0000
  14467 O          45.9179   47.5853   39.2729 O.2    1416      M_A    0.0000
  14468 H          47.0357   44.6703   38.4956 H      1416      M_A    0.0000
  14469 H          46.1626   43.9673   39.7667 H      1416      M_A    0.0000
  14470 H          44.2420   45.0954   39.3142 H      1416      M_A    0.0000
  14471 H          43.5042   47.0565   37.5463 H      1416      M_A    0.0000
  14472 H          44.0430   48.4969   38.1928 H      1416      M_A    0.0000
  14473 C          44.8046   44.9621   37.2737 C.3    1417      M_A    0.0000
  14474 C          43.3815   45.0888   36.8657 C.3    1417      M_A    0.0000
  14475 C          42.7651   46.2992   37.4870 C.2    1417      M_A    0.0000
  14476 N          41.5034   46.5532   37.1375 N.3    1417      M_A    0.0000
  14477 O          43.3039   47.0143   38.2687 O.2    1417      M_A    0.0000
  14478 H          45.4541   45.4862   36.6185 H      1417      M_A    0.0000
  14479 H          45.1063   43.9440   37.2293 H      1417      M_A    0.0000
  14480 H          42.8211   44.2505   37.2017 H      1417      M_A    0.0000
  14481 H          41.1970   46.2457   36.2544 H      1417      M_A    0.0000
  14482 H          41.1398   47.4095   37.4482 H      1417      M_A    0.0000
  14483 C          43.2226   45.1559   35.3263 C.3    1418      M_A    0.0000
  14484 C          41.9534   44.5527   34.8440 C.3    1418      M_A    0.0000
  14485 C          40.7833   45.3596   35.3029 C.2    1418      M_A    0.0000
  14486 N          39.5896   44.9495   34.8720 N.3    1418      M_A    0.0000
  14487 O          40.8451   46.3008   36.0261 O.2    1418      M_A    0.0000
  14488 H          43.3308   46.1623   35.0079 H      1418      M_A    0.0000
  14489 H          44.0523   44.6314   34.9189 H      1418      M_A    0.0000
  14490 H          41.8296   43.5754   35.2430 H      1418      M_A    0.0000
  14491 H          39.5474   44.4687   34.0145 H      1418      M_A    0.0000
  14492 H          38.8370   45.5457   35.0720 H      1418      M_A    0.0000
  14493 C          41.9223   44.4221   33.3008 C.3    1419      M_A    0.0000
  14494 C          41.1572   43.2383   32.8307 C.3    1419      M_A    0.0000
  14495 C          40.8835   43.3405   31.3659 C.2    1419      M_A    0.0000
  14496 N          40.2584   42.2978   30.8175 N.3    1419      M_A    0.0000
  14497 O          41.1573   44.2747   30.6842 O.2    1419      M_A    0.0000
  14498 H          41.5551   45.3250   32.8815 H      1419      M_A    0.0000
  14499 H          42.9355   44.3476   32.9885 H      1419      M_A    0.0000
  14500 H          40.2140   43.1864   33.3178 H      1419      M_A    0.0000
  14501 H          40.3806   41.4142   31.2328 H      1419      M_A    0.0000
  14502 H          40.1869   42.3107   29.8394 H      1419      M_A    0.0000
  14503 C          41.8985   41.9116   33.1303 C.3    1420      M_A    0.0000
  14504 C          41.3053   41.1548   34.2630 C.3    1420      M_A    0.0000
  14505 C          40.0567   40.4588   33.8301 C.2    1420      M_A    0.0000
  14506 N          39.4710   39.6905   34.7496 N.3    1420      M_A    0.0000
  14507 O          39.5541   40.5630   32.7581 O.2    1420      M_A    0.0000
  14508 H          41.9445   41.3298   32.2442 H      1420      M_A    0.0000
  14509 H          42.9025   42.1768   33.3564 H      1420      M_A    0.0000
  14510 H          41.0333   41.8146   35.0507 H      1420      M_A    0.0000
  14511 H          40.0375   39.2915   35.4482 H      1420      M_A    0.0000
  14512 H          38.7234   39.1409   34.4316 H      1420      M_A    0.0000
  14513 C          42.2977   40.1231   34.8550 C.3    1421      M_A    0.0000
  14514 C          42.8292   40.5211   36.1842 C.3    1421      M_A    0.0000
  14515 C          42.1224   39.7818   37.2727 C.2    1421      M_A    0.0000
  14516 N          42.5633   40.0091   38.5107 N.3    1421      M_A    0.0000
  14517 O          41.2036   39.0451   37.1120 O.2    1421      M_A    0.0000
  14518 H          41.8345   39.1689   34.8815 H      1421      M_A    0.0000
  14519 H          43.0932   40.0408   34.1551 H      1421      M_A    0.0000
  14520 H          42.6640   41.5567   36.3572 H      1421      M_A    0.0000
  14521 H          43.5055   40.2684   38.6260 H      1421      M_A    0.0000
  14522 H          42.1829   39.4360   39.2099 H      1421      M_A    0.0000
  14523 C          44.3550   40.2781   36.2958 C.3    1422      M_A    0.0000
  14524 C          45.1654   41.3974   35.7499 C.3    1422      M_A    0.0000
  14525 C          45.8110   42.1643   36.8572 C.2    1422      M_A    0.0000
  14526 N          46.6205   43.1557   36.4824 N.3    1422      M_A    0.0000
  14527 O          45.6346   41.9683   38.0161 O.2    1422      M_A    0.0000
  14528 H          44.6014   40.0644   37.3054 H      1422      M_A    0.0000
  14529 H          44.5543   39.3865   35.7529 H      1422      M_A    0.0000
  14530 H          44.5478   42.0814   35.2203 H      1422      M_A    0.0000
  14531 H          47.0705   43.0812   35.6105 H      1422      M_A    0.0000
  14532 H          47.1362   43.5790   37.2014 H      1422      M_A    0.0000
  14533 C          46.2486   40.9010   34.7601 C.3    1423      M_A    0.0000
  14534 C          45.6917   40.4803   33.4485 C.3    1423      M_A    0.0000
  14535 C          44.3144   41.0284   33.2650 C.2    1423      M_A    0.0000
  14536 N          43.7380   40.7706   32.0903 N.3    1423      M_A    0.0000
  14537 O          43.7088   41.6401   34.0846 O.2    1423      M_A    0.0000
  14538 H          46.9936   41.6491   34.6541 H      1423      M_A    0.0000
  14539 H          46.7279   40.0783   35.2323 H      1423      M_A    0.0000
  14540 H          45.6112   39.4216   33.3997 H      1423      M_A    0.0000
  14541 H          44.3205   40.6369   31.3085 H      1423      M_A    0.0000
  14542 H          42.8876   41.2299   31.9235 H      1423      M_A    0.0000
  14543 C          46.5900   40.9240   32.2670 C.3    1424      M_A    0.0000
  14544 C          45.8343   41.6012   31.1818 C.3    1424      M_A    0.0000
  14545 C          44.8616   42.5798   31.7538 C.2    1424      M_A    0.0000
  14546 N          44.1714   43.2988   30.8675 N.3    1424      M_A    0.0000
  14547 O          44.6526   42.7356   32.9134 O.2    1424      M_A    0.0000
  14548 H          47.3806   41.5271   32.6372 H      1424      M_A    0.0000
  14549 H          47.0483   40.0405   31.8943 H      1424      M_A    0.0000
  14550 H          45.2691   40.8948   30.6239 H      1424      M_A    0.0000
  14551 H          44.5838   43.4728   29.9912 H      1424      M_A    0.0000
  14552 H          43.6241   44.0223   31.2402 H      1424      M_A    0.0000
  14553 C          46.7734   42.3236   30.1839 C.3    1425      M_A    0.0000
  14554 C          46.5486   41.9172   28.7725 C.3    1425      M_A    0.0000
  14555 C          45.3956   40.9725   28.6776 C.2    1425      M_A    0.0000
  14556 N          45.0570   40.5907   27.4454 N.3    1425      M_A    0.0000
  14557 O          44.7950   40.5337   29.6046 O.2    1425      M_A    0.0000
  14558 H          46.6814   43.3725   30.3150 H      1425      M_A    0.0000
  14559 H          47.7648   42.0795   30.4790 H      1425      M_A    0.0000
  14560 H          47.3988   41.4053   28.3919 H      1425      M_A    0.0000
  14561 H          45.2500   41.2050   26.7013 H      1425      M_A    0.0000
  14562 H          44.2292   40.0696   27.3736 H      1425      M_A    0.0000
  14563 C          46.2998   43.1364   27.8499 C.3    1426      M_A    0.0000
  14564 C          44.9458   43.1384   27.2381 C.3    1426      M_A    0.0000
  14565 C          43.9681   43.8253   28.1343 C.2    1426      M_A    0.0000
  14566 N          42.7287   43.9473   27.6571 N.3    1426      M_A    0.0000
  14567 O          44.2117   44.2353   29.2229 O.2    1426      M_A    0.0000
  14568 H          46.4931   44.0285   28.3908 H      1426      M_A    0.0000
  14569 H          47.0419   43.0904   27.0904 H      1426      M_A    0.0000
  14570 H          44.5955   42.1439   27.1042 H      1426      M_A    0.0000
  14571 H          42.6105   43.9868   26.6810 H      1426      M_A    0.0000
  14572 H          42.1201   44.5020   28.1900 H      1426      M_A    0.0000
  14573 C          44.9393   43.8153   25.8448 C.3    1427      M_A    0.0000
  14574 C          44.3677   42.9518   24.7794 C.3    1427      M_A    0.0000
  14575 C          43.8748   41.6656   25.3569 C.2    1427      M_A    0.0000
  14576 N          43.2777   40.8352   24.5010 N.3    1427      M_A    0.0000
  14577 O          43.9996   41.3350   26.4917 O.2    1427      M_A    0.0000
  14578 H          44.4379   44.7480   25.9123 H      1427      M_A    0.0000
  14579 H          45.9526   44.0455   25.6217 H      1427      M_A    0.0000
  14580 H          45.1114   42.7028   24.0620 H      1427      M_A    0.0000
  14581 H          42.8292   41.2237   23.7160 H      1427      M_A    0.0000
  14582 H          42.8484   40.0488   24.9001 H      1427      M_A    0.0000
  14583 C          43.2169   43.6549   24.0173 C.3    1428      M_A    0.0000
  14584 C          41.8803   43.3989   24.6136 C.3    1428      M_A    0.0000
  14585 C          41.1853   42.2956   23.8851 C.2    1428      M_A    0.0000
  14586 N          39.9999   41.9315   24.3760 N.3    1428      M_A    0.0000
  14587 O          41.5985   41.7552   22.9105 O.2    1428      M_A    0.0000
  14588 H          43.4283   44.6923   23.9459 H      1428      M_A    0.0000
  14589 H          43.2485   43.2827   23.0223 H      1428      M_A    0.0000
  14590 H          41.2633   44.2603   24.5299 H      1428      M_A    0.0000
  14591 H          39.8372   42.0626   25.3375 H      1428      M_A    0.0000
  14592 H          39.6006   41.1308   23.9742 H      1428      M_A    0.0000
  14593 C          41.9738   43.0499   26.1199 C.3    1429      M_A    0.0000
  14594 C          40.6834   43.2141   26.8380 C.3    1429      M_A    0.0000
  14595 C          39.5890   42.4975   26.1172 C.2    1429      M_A    0.0000
  14596 N          38.3932   42.5190   26.7074 N.3    1429      M_A    0.0000
  14597 O          39.7076   41.9471   25.0705 O.2    1429      M_A    0.0000
  14598 H          42.3668   42.0702   26.2274 H      1429      M_A    0.0000
  14599 H          42.7044   43.7030   26.5313 H      1429      M_A    0.0000
  14600 H          40.4066   44.2395   26.8778 H      1429      M_A    0.0000
  14601 H          38.3623   42.6021   27.6874 H      1429      M_A    0.0000
  14602 H          37.7066   41.9499   26.2989 H      1429      M_A    0.0000
  14603 C          40.7636   42.7066   28.2993 C.3    1430      M_A    0.0000
  14604 C          42.1452   42.3595   28.7214 C.3    1430      M_A    0.0000
  14605 C          42.9015   43.5908   29.0996 C.2    1430      M_A    0.0000
  14606 N          44.1374   43.3949   29.5608 N.3    1430      M_A    0.0000
  14607 O          42.4923   44.7018   28.9951 O.2    1430      M_A    0.0000
  14608 H          40.3198   43.4241   28.9427 H      1430      M_A    0.0000
  14609 H          40.1412   41.8466   28.3497 H      1430      M_A    0.0000
  14610 H          42.6767   41.9049   27.9210 H      1430      M_A    0.0000
  14611 H          44.3339   42.5417   30.0100 H      1430      M_A    0.0000
  14612 H          44.5879   44.1881   29.9213 H      1430      M_A    0.0000
  14613 C          42.1569   41.3580   29.9032 C.3    1431      M_A    0.0000
  14614 C          43.4762   40.7035   30.1001 C.3    1431      M_A    0.0000
  14615 C          43.7255   40.4558   31.5518 C.2    1431      M_A    0.0000
  14616 N          44.8544   39.8092   31.8455 N.3    1431      M_A    0.0000
  14617 O          43.0149   40.8099   32.4363 O.2    1431      M_A    0.0000
  14618 H          41.8225   41.8507   30.7814 H      1431      M_A    0.0000
  14619 H          41.4181   40.6272   29.6805 H      1431      M_A    0.0000
  14620 H          44.2601   41.3331   29.7556 H      1431      M_A    0.0000
  14621 H          45.2231   39.1930   31.1727 H      1431      M_A    0.0000
  14622 H          44.9595   39.5405   32.7829 H      1431      M_A    0.0000
  14623 C          43.5853   39.3705   29.3185 C.3    1432      M_A    0.0000
  14624 C          43.4797   38.1724   30.1908 C.3    1432      M_A    0.0000
  14625 C          43.4833   36.9252   29.3689 C.2    1432      M_A    0.0000
  14626 N          43.4602   35.7795   30.0513 N.3    1432      M_A    0.0000
  14627 O          43.4803   36.8910   28.1809 O.2    1432      M_A    0.0000
  14628 H          42.8629   39.3615   28.5415 H      1432      M_A    0.0000
  14629 H          44.5318   39.3862   28.8353 H      1432      M_A    0.0000
  14630 H          42.5642   38.1834   30.7305 H      1432      M_A    0.0000
  14631 H          43.8481   35.7717   30.9556 H      1432      M_A    0.0000
  14632 H          43.5844   34.9648   29.5195 H      1432      M_A    0.0000
  14633 C          44.6231   38.1113   31.2342 C.3    1433      M_A    0.0000
  14634 C          45.7164   37.1824   30.8479 C.3    1433      M_A    0.0000
  14635 C          47.0432   37.7434   31.2426 C.2    1433      M_A    0.0000
  14636 N          48.0981   36.9626   31.0053 N.3    1433      M_A    0.0000
  14637 O          47.2151   38.8193   31.7175 O.2    1433      M_A    0.0000
  14638 H          44.9815   39.0931   31.4169 H      1433      M_A    0.0000
  14639 H          44.1778   37.7903   32.1443 H      1433      M_A    0.0000
  14640 H          45.7387   37.0504   29.7935 H      1433      M_A    0.0000
  14641 H          47.9604   35.9883   30.9983 H      1433      M_A    0.0000
  14642 H          48.9515   37.2770   31.3726 H      1433      M_A    0.0000
  14643 C          45.5361   35.7792   31.4790 C.3    1434      M_A    0.0000
  14644 C          46.7193   35.3343   32.2598 C.3    1434      M_A    0.0000
  14645 C          46.5380   35.6483   33.7088 C.2    1434      M_A    0.0000
  14646 N          47.5117   35.2325   34.5198 N.3    1434      M_A    0.0000
  14647 O          45.6204   36.2487   34.1671 O.2    1434      M_A    0.0000
  14648 H          44.6492   35.7698   32.0613 H      1434      M_A    0.0000
  14649 H          45.3610   35.1107   30.6717 H      1434      M_A    0.0000
  14650 H          47.5925   35.8490   31.9397 H      1434      M_A    0.0000
  14651 H          48.0316   34.4415   34.2510 H      1434      M_A    0.0000
  14652 H          47.3368   35.3304   35.4799 H      1434      M_A    0.0000
  14653 C          46.9936   33.8197   32.0859 C.3    1435      M_A    0.0000
  14654 C          48.2366   33.5357   31.3231 C.3    1435      M_A    0.0000
  14655 C          48.4552   32.0626   31.2090 C.2    1435      M_A    0.0000
  14656 N          49.5095   31.6859   30.4843 N.3    1435      M_A    0.0000
  14657 O          47.7834   31.2309   31.7283 O.2    1435      M_A    0.0000
  14658 H          46.9970   33.3539   33.0392 H      1435      M_A    0.0000
  14659 H          46.1526   33.4227   31.5714 H      1435      M_A    0.0000
  14660 H          49.0830   33.9349   31.8271 H      1435      M_A    0.0000
  14661 H          49.8134   32.2837   29.7641 H      1435      M_A    0.0000
  14662 H          49.5837   30.7238   30.3089 H      1435      M_A    0.0000
  14663 C          48.2077   34.1685   29.9095 C.3    1436      M_A    0.0000
  14664 C          47.8754   33.1923   28.8399 C.3    1436      M_A    0.0000
  14665 C          46.4149   33.2333   28.5298 C.2    1436      M_A    0.0000
  14666 N          46.0099   32.4438   27.5341 N.3    1436      M_A    0.0000
  14667 O          45.6116   33.8868   29.1131 O.2    1436      M_A    0.0000
  14668 H          47.5447   34.9970   29.9116 H      1436      M_A    0.0000
  14669 H          49.1769   34.5723   29.7449 H      1436      M_A    0.0000
  14670 H          48.0955   32.2020   29.1572 H      1436      M_A    0.0000
  14671 H          46.6557   32.2258   26.8244 H      1436      M_A    0.0000
  14672 H          45.0779   32.5597   27.2511 H      1436      M_A    0.0000
  14673 C          48.6894   33.4481   27.5470 C.3    1437      M_A    0.0000
  14674 C          48.1642   34.5807   26.7415 C.3    1437      M_A    0.0000
  14675 C          48.5819   35.8847   27.3380 C.2    1437      M_A    0.0000
  14676 N          48.2231   36.9756   26.6597 N.3    1437      M_A    0.0000
  14677 O          49.1743   36.0085   28.3609 O.2    1437      M_A    0.0000
  14678 H          49.7117   33.5796   27.7986 H      1437      M_A    0.0000
  14679 H          48.6421   32.5483   26.9834 H      1437      M_A    0.0000
  14680 H          47.1014   34.5716   26.7336 H      1437      M_A    0.0000
  14681 H          48.1060   36.8972   25.6858 H      1437      M_A    0.0000
  14682 H          48.5989   37.8214   26.9842 H      1437      M_A    0.0000
  14683 C          48.6314   34.5097   25.2663 C.3    1438      M_A    0.0000
  14684 C          47.5201   34.6731   24.2938 C.3    1438      M_A    0.0000
  14685 C          47.7185   35.9068   23.4754 C.2    1438      M_A    0.0000
  14686 N          46.8139   36.1215   22.5192 N.3    1438      M_A    0.0000
  14687 O          48.5911   36.6979   23.6342 O.2    1438      M_A    0.0000
  14688 H          49.4039   35.2203   25.1104 H      1438      M_A    0.0000
  14689 H          49.0845   33.5562   25.1438 H      1438      M_A    0.0000
  14690 H          46.5934   34.7858   24.8018 H      1438      M_A    0.0000
  14691 H          46.3607   35.3409   22.1272 H      1438      M_A    0.0000
  14692 H          47.0099   36.8616   21.9062 H      1438      M_A    0.0000
  14693 C          47.3812   33.4455   23.3593 C.3    1439      M_A    0.0000
  14694 C          46.7337   32.2815   24.0177 C.3    1439      M_A    0.0000
  14695 C          47.4604   31.0203   23.6828 C.2    1439      M_A    0.0000
  14696 N          47.0073   29.9140   24.2741 N.3    1439      M_A    0.0000
  14697 O          48.3734   30.9393   22.9263 O.2    1439      M_A    0.0000
  14698 H          46.8719   33.7360   22.4749 H      1439      M_A    0.0000
  14699 H          48.3672   33.1897   23.0563 H      1439      M_A    0.0000
  14700 H          45.7360   32.1640   23.6706 H      1439      M_A    0.0000
  14701 H          46.5602   30.0053   25.1459 H      1439      M_A    0.0000
  14702 H          47.5557   29.1102   24.1505 H      1439      M_A    0.0000
  14703 C          46.6642   32.4492   25.5561 C.3    1440      M_A    0.0000
  14704 C          45.2753   32.4259   26.0834 C.2    1440      M_A    0.0000
  14705 C          44.8783   31.0334   26.4496 C.2    1440      M_A    0.0000
  14706 N          43.6705   30.8989   26.9991 N.3    1440      M_A    0.0000
  14707 O          45.5408   30.0641   26.2649 O.2    1440      M_A    0.0000
  14708 H          47.2762   31.7141   26.0153 H      1440      M_A    0.0000
  14709 H          47.1201   33.3843   25.7738 H      1440      M_A    0.0000
  14710 H          44.5894   32.7573   25.3422 H      1440      M_A    0.0000
  14711 H          43.3030   31.6614   27.5009 H      1440      M_A    0.0000
  14712 H          43.4589   30.0074   27.3490 H      1440      M_A    0.0000
@<TRIPOS>BOND
     1     1     2      1
     2     1    11      1
     3     1    12      1
     4     2     3      2
     5     2     4      1
     6     4     5      1
     7     4    13      1
     8     5     6      1
     9     5    14      1
    10     5    15      1
    11     6     7      1
    12     6    16      1
    13     7     8      1
    14     7    10      2
    15     8     9      1
    16     8    17      1
    17     9    18      1
    18     9    19      1
    19    11    20      1
    20    11    21      1
    21    22    23      1
    22    22    32      1
    23    22    33      1
    24    23    24      2
    25    23    25      1
    26    25    26      1
    27    25    34      1
    28    26    27      1
    29    26    35      1
    30    26    36      1
    31    27    28      1
    32    27    37      1
    33    28    29      1
    34    28    31      2
    35    29    30      1
    36    29    38      1
    37    30    39      1
    38    30    40      1
    39    32    41      1
    40    32    42      1
    41    43    44      1
    42    43    53      1
    43    43    54      1
    44    44    45      2
    45    44    46      1
    46    46    47      1
    47    46    55      1
    48    47    48      1
    49    47    56      1
    50    47    57      1
    51    48    49      1
    52    48    58      1
    53    49    50      1
    54    49    52      2
    55    50    51      1
    56    50    59      1
    57    51    60      1
    58    51    61      1
    59    53    62      1
    60    53    63      1
    61    64    65      1
    62    64    74      1
    63    64    75      1
    64    65    66      2
    65    65    67      1
    66    67    68      1
    67    67    76      1
    68    68    69      1
    69    68    77      1
    70    68    78      1
    71    69    70      1
    72    69    79      1
    73    70    71      1
    74    70    73      2
    75    71    72      1
    76    71    80      1
    77    72    81      1
    78    72    82      1
    79    74    83      1
    80    74    84      1
    81    85    86      1
    82    85    95      1
    83    85    96      1
    84    86    87      2
    85    86    88      1
    86    88    89      1
    87    88    97      1
    88    89    90      1
    89    89    98      1
    90    89    99      1
    91    90    91      1
    92    90   100      1
    93    91    92      1
    94    91    94      2
    95    92    93      1
    96    92   101      1
    97    93   102      1
    98    93   103      1
    99    95   104      1
   100    95   105      1
   101   106   107      1
   102   106   116      1
   103   106   117      1
   104   107   108      2
   105   107   109      1
   106   109   110      1
   107   109   118      1
   108   110   111      1
   109   110   119      1
   110   110   120      1
   111   111   112      1
   112   111   121      1
   113   112   113      1
   114   112   115      2
   115   113   114      1
   116   113   122      1
   117   114   123      1
   118   114   124      1
   119   116   125      1
   120   116   126      1
   121   127   128      1
   122   127   137      1
   123   127   138      1
   124   128   129      2
   125   128   130      1
   126   130   131      1
   127   130   139      1
   128   131   132      1
   129   131   140      1
   130   131   141      1
   131   132   133      1
   132   132   142      1
   133   133   134      1
   134   133   136      2
   135   134   135      1
   136   134   143      1
   137   135   144      1
   138   135   145      1
   139   137   146      1
   140   137   147      1
   141   148   149      1
   142   148   158      1
   143   148   159      1
   144   149   150      2
   145   149   151      1
   146   151   152      1
   147   151   160      1
   148   152   153      1
   149   152   161      1
   150   152   162      1
   151   153   154      1
   152   153   163      1
   153   154   155      1
   154   154   157      2
   155   155   156      1
   156   155   164      1
   157   156   165      1
   158   156   166      1
   159   158   167      1
   160   158   168      1
   161   169   170      1
   162   169   179      1
   163   169   180      1
   164   170   171      2
   165   170   172      1
   166   172   173      1
   167   172   181      1
   168   173   174      1
   169   173   182      1
   170   173   183      1
   171   174   175      1
   172   174   184      1
   173   175   176      1
   174   175   178      2
   175   176   177      1
   176   176   185      1
   177   177   186      1
   178   177   187      1
   179   179   188      1
   180   179   189      1
   181   190   191      1
   182   190   200      1
   183   190   201      1
   184   191   192      2
   185   191   193      1
   186   193   194      1
   187   193   202      1
   188   194   195      1
   189   194   203      1
   190   194   204      1
   191   195   196      1
   192   195   205      1
   193   196   197      1
   194   196   199      2
   195   197   198      1
   196   197   206      1
   197   198   207      1
   198   198   208      1
   199   200   209      1
   200   200   210      1
   201   211   212      1
   202   211   221      1
   203   211   222      1
   204   212   213      2
   205   212   214      1
   206   214   215      1
   207   214   223      1
   208   215   216      1
   209   215   224      1
   210   215   225      1
   211   216   217      1
   212   216   226      1
   213   217   218      1
   214   217   220      2
   215   218   219      1
   216   218   227      1
   217   219   228      1
   218   219   229      1
   219   221   230      1
   220   221   231      1
   221   232   233      1
   222   232   242      1
   223   232   243      1
   224   233   234      2
   225   233   235      1
   226   235   236      1
   227   235   244      1
   228   236   237      1
   229   236   245      1
   230   236   246      1
   231   237   238      1
   232   237   247      1
   233   238   239      1
   234   238   241      2
   235   239   240      1
   236   239   248      1
   237   240   249      1
   238   240   250      1
   239   242   251      1
   240   242   252      1
   241   253   254      1
   242   253   263      1
   243   253   264      1
   244   254   255      2
   245   254   256      1
   246   256   257      1
   247   256   265      1
   248   257   258      1
   249   257   266      1
   250   257   267      1
   251   258   259      1
   252   258   268      1
   253   259   260      1
   254   259   262      2
   255   260   261      1
   256   260   269      1
   257   261   270      1
   258   261   271      1
   259   263   272      1
   260   263   273      1
   261   274   275      1
   262   274   284      1
   263   274   285      1
   264   275   276      2
   265   275   277      1
   266   277   278      1
   267   277   286      1
   268   278   279      1
   269   278   287      1
   270   278   288      1
   271   279   280      1
   272   279   289      1
   273   280   281      1
   274   280   283      2
   275   281   282      1
   276   281   290      1
   277   282   291      1
   278   282   292      1
   279   284   293      1
   280   284   294      1
   281   295   296      1
   282   295   305      1
   283   295   306      1
   284   296   297      2
   285   296   298      1
   286   298   299      1
   287   298   307      1
   288   299   300      1
   289   299   308      1
   290   299   309      1
   291   300   301      1
   292   300   310      1
   293   301   302      1
   294   301   304      2
   295   302   303      1
   296   302   311      1
   297   303   312      1
   298   303   313      1
   299   305   314      1
   300   305   315      1
   301   316   317      1
   302   316   326      1
   303   316   327      1
   304   317   318      2
   305   317   319      1
   306   319   320      1
   307   319   328      1
   308   320   321      1
   309   320   329      1
   310   320   330      1
   311   321   322      1
   312   321   331      1
   313   322   323      1
   314   322   325      2
   315   323   324      1
   316   323   332      1
   317   324   333      1
   318   324   334      1
   319   326   335      1
   320   326   336      1
   321   337   338      1
   322   337   347      1
   323   337   348      1
   324   338   339      2
   325   338   340      1
   326   340   341      1
   327   340   349      1
   328   341   342      1
   329   341   350      1
   330   341   351      1
   331   342   343      1
   332   342   352      1
   333   343   344      1
   334   343   346      2
   335   344   345      1
   336   344   353      1
   337   345   354      1
   338   345   355      1
   339   347   356      1
   340   347   357      1
   341   347   358      1
   342   359   360      1
   343   359   369      1
   344   359   370      1
   345   360   361      2
   346   360   362      1
   347   362   363      1
   348   362   371      1
   349   363   364      1
   350   363   372      1
   351   363   373      1
   352   364   365      1
   353   364   374      1
   354   365   366      1
   355   365   368      2
   356   366   367      1
   357   366   375      1
   358   367   376      1
   359   367   377      1
   360   369   378      1
   361   369   379      1
   362   380   381      1
   363   380   390      1
   364   380   391      1
   365   381   382      2
   366   381   383      1
   367   383   384      1
   368   383   392      1
   369   384   385      1
   370   384   393      1
   371   384   394      1
   372   385   386      1
   373   385   395      1
   374   386   387      1
   375   386   389      2
   376   387   388      1
   377   387   396      1
   378   388   397      1
   379   388   398      1
   380   390   399      1
   381   390   400      1
   382   401   402      1
   383   401   411      1
   384   401   412      1
   385   402   403      2
   386   402   404      1
   387   404   405      1
   388   404   413      1
   389   405   406      1
   390   405   414      1
   391   405   415      1
   392   406   407      1
   393   406   416      1
   394   407   408      1
   395   407   410      2
   396   408   409      1
   397   408   417      1
   398   409   418      1
   399   409   419      1
   400   411   420      1
   401   411   421      1
   402   422   423      1
   403   422   432      1
   404   422   433      1
   405   423   424      2
   406   423   425      1
   407   425   426      1
   408   425   434      1
   409   426   427      1
   410   426   435      1
   411   426   436      1
   412   427   428      1
   413   427   437      1
   414   428   429      1
   415   428   431      2
   416   429   430      1
   417   429   438      1
   418   430   439      1
   419   430   440      1
   420   432   441      1
   421   432   442      1
   422   443   444      1
   423   443   453      1
   424   443   454      1
   425   444   445      2
   426   444   446      1
   427   446   447      1
   428   446   455      1
   429   447   448      1
   430   447   456      1
   431   447   457      1
   432   448   449      1
   433   448   458      1
   434   449   450      1
   435   449   452      2
   436   450   451      1
   437   450   459      1
   438   451   460      1
   439   451   461      1
   440   453   462      1
   441   453   463      1
   442   453   464      1
   443   465   466      1
   444   465   475      1
   445   465   476      1
   446   466   467      2
   447   466   468      1
   448   468   469      1
   449   468   477      1
   450   469   470      1
   451   469   478      1
   452   469   479      1
   453   470   471      1
   454   470   480      1
   455   471   472      1
   456   471   474      2
   457   472   473      1
   458   472   481      1
   459   473   482      1
   460   473   483      1
   461   475   484      1
   462   475   485      1
   463   486   487      1
   464   486   496      1
   465   486   497      1
   466   487   488      2
   467   487   489      1
   468   489   490      1
   469   489   498      1
   470   490   491      1
   471   490   499      1
   472   490   500      1
   473   491   492      1
   474   491   501      1
   475   492   493      1
   476   492   495      2
   477   493   494      1
   478   493   502      1
   479   494   503      1
   480   494   504      1
   481   496   505      1
   482   496   506      1
   483   507   508      1
   484   507   517      1
   485   507   518      1
   486   508   509      2
   487   508   510      1
   488   510   511      1
   489   510   519      1
   490   511   512      1
   491   511   520      1
   492   511   521      1
   493   512   513      1
   494   512   522      1
   495   513   514      1
   496   513   516      2
   497   514   515      1
   498   514   523      1
   499   515   524      1
   500   515   525      1
   501   517   526      1
   502   517   527      1
   503   528   529      1
   504   528   538      1
   505   528   539      1
   506   529   530      2
   507   529   531      1
   508   531   532      1
   509   531   540      1
   510   532   533      1
   511   532   541      1
   512   532   542      1
   513   533   534      1
   514   533   543      1
   515   534   535      1
   516   534   537      2
   517   535   536      1
   518   535   544      1
   519   536   545      1
   520   536   546      1
   521   538   547      1
   522   538   548      1
   523   549   550      1
   524   549   559      1
   525   549   560      1
   526   550   551      2
   527   550   552      1
   528   552   553      1
   529   552   561      1
   530   553   554      1
   531   553   562      1
   532   553   563      1
   533   554   555      1
   534   554   564      1
   535   555   556      1
   536   555   558      2
   537   556   557      1
   538   556   565      1
   539   557   566      1
   540   557   567      1
   541   559   568      1
   542   559   569      1
   543   570   571      1
   544   570   580      1
   545   570   581      1
   546   571   572      2
   547   571   573      1
   548   573   574      1
   549   573   582      1
   550   574   575      1
   551   574   583      1
   552   574   584      1
   553   575   576      1
   554   575   585      1
   555   576   577      1
   556   576   579      2
   557   577   578      1
   558   577   586      1
   559   578   587      1
   560   578   588      1
   561   580   589      1
   562   580   590      1
   563   591   592      1
   564   591   601      1
   565   591   602      1
   566   592   593      2
   567   592   594      1
   568   594   595      1
   569   594   603      1
   570   595   596      1
   571   595   604      1
   572   595   605      1
   573   596   597      1
   574   596   606      1
   575   597   598      1
   576   597   600      2
   577   598   599      1
   578   598   607      1
   579   599   608      1
   580   599   609      1
   581   601   610      1
   582   601   611      1
   583   612   613      1
   584   612   622      1
   585   612   623      1
   586   613   614      2
   587   613   615      1
   588   615   616      1
   589   615   624      1
   590   616   617      1
   591   616   625      1
   592   616   626      1
   593   617   618      1
   594   617   627      1
   595   618   619      1
   596   618   621      2
   597   619   620      1
   598   619   628      1
   599   620   629      1
   600   620   630      1
   601   622   631      1
   602   622   632      1
   603   633   634      2
   604   633   637      1
   605   633   640      1
   606   634   635      1
   607   634   641      1
   608   635   636      1
   609   635   639      2
   610   636   637      1
   611   637   638      2
   612   642   643      2
   613   642   646      1
   614   642   649      1
   615   643   644      1
   616   643   650      1
   617   644   645      1
   618   644   648      2
   619   645   646      1
   620   646   647      2
   621   651   652      2
   622   651   655      1
   623   651   658      1
   624   652   653      1
   625   652   659      1
   626   653   654      1
   627   653   657      2
   628   654   655      1
   629   655   656      2
   630   660   661      2
   631   660   664      1
   632   660   667      1
   633   661   662      1
   634   661   668      1
   635   662   663      1
   636   662   666      2
   637   663   664      1
   638   664   665      2
   639   669   670      2
   640   669   673      1
   641   669   676      1
   642   670   671      1
   643   670   677      1
   644   671   672      1
   645   671   675      2
   646   672   673      1
   647   673   674      2
   648   678   679      2
   649   678   682      1
   650   678   685      1
   651   679   680      1
   652   679   686      1
   653   680   681      1
   654   680   684      2
   655   681   682      1
   656   682   683      2
   657   687   688      2
   658   687   691      1
   659   687   694      1
   660   688   689      1
   661   688   695      1
   662   689   690      1
   663   689   693      2
   664   690   691      1
   665   691   692      2
   666   696   697      2
   667   696   700      1
   668   696   703      1
   669   697   698      1
   670   697   704      1
   671   698   699      1
   672   698   702      2
   673   699   700      1
   674   700   701      2
   675   705   706      2
   676   705   709      1
   677   705   712      1
   678   706   707      1
   679   706   713      1
   680   707   708      1
   681   707   711      2
   682   708   709      1
   683   709   710      2
   684   714   715      2
   685   714   718      1
   686   714   721      1
   687   715   716      1
   688   715   722      1
   689   716   717      1
   690   716   720      2
   691   717   718      1
   692   718   719      2
   693   723   724      2
   694   723   727      1
   695   723   730      1
   696   724   725      1
   697   724   731      1
   698   725   726      1
   699   725   729      2
   700   726   727      1
   701   727   728      2
   702   732   733      2
   703   732   736      1
   704   732   739      1
   705   733   734      1
   706   733   740      1
   707   734   735      1
   708   734   738      2
   709   735   736      1
   710   736   737      2
   711   741   742      2
   712   741   745      1
   713   741   748      1
   714   742   743      1
   715   742   749      1
   716   743   744      1
   717   743   747      2
   718   744   745      1
   719   745   746      2
   720   750   751      2
   721   750   754      1
   722   750   757      1
   723   751   752      1
   724   751   758      1
   725   752   753      1
   726   752   756      2
   727   753   754      1
   728   754   755      2
   729   759   760      2
   730   759   763      1
   731   759   766      1
   732   760   761      1
   733   760   767      1
   734   761   762      1
   735   761   765      2
   736   762   763      1
   737   763   764      2
   738   768   769      2
   739   768   772      1
   740   768   775      1
   741   769   770      1
   742   769   776      1
   743   770   771      1
   744   770   774      2
   745   771   772      1
   746   772   773      2
   747   777   778      2
   748   777   781      1
   749   777   784      1
   750   778   779      1
   751   778   785      1
   752   779   780      1
   753   779   783      2
   754   780   781      1
   755   781   782      2
   756   786   787      2
   757   786   790      1
   758   786   793      1
   759   787   788      1
   760   787   794      1
   761   788   789      1
   762   788   792      2
   763   789   790      1
   764   790   791      2
   765   795   796      2
   766   795   799      1
   767   795   802      1
   768   796   797      1
   769   796   803      1
   770   797   798      1
   771   797   801      2
   772   798   799      1
   773   799   800      2
   774   804   805      2
   775   804   808      1
   776   804   811      1
   777   805   806      1
   778   805   812      1
   779   806   807      1
   780   806   810      2
   781   807   808      1
   782   808   809      2
   783   813   814      2
   784   813   817      1
   785   813   820      1
   786   814   815      1
   787   814   821      1
   788   815   816      1
   789   815   819      2
   790   816   817      1
   791   817   818      2
   792   822   823      2
   793   822   826      1
   794   822   829      1
   795   823   824      1
   796   823   830      1
   797   824   825      1
   798   824   828      2
   799   825   826      1
   800   826   827      2
   801   831   832      2
   802   831   835      1
   803   831   838      1
   804   832   833      1
   805   832   839      1
   806   833   834      1
   807   833   837      2
   808   834   835      1
   809   835   836      2
   810   840   841      2
   811   840   844      1
   812   840   847      1
   813   841   842      1
   814   841   848      1
   815   842   843      1
   816   842   846      2
   817   843   844      1
   818   844   845      2
   819   849   850      2
   820   849   853      1
   821   849   856      1
   822   850   851      1
   823   850   857      1
   824   851   852      1
   825   851   855      2
   826   852   853      1
   827   853   854      2
   828   858   859      2
   829   858   862      1
   830   858   865      1
   831   859   860      1
   832   859   866      1
   833   860   861      1
   834   860   864      2
   835   861   862      1
   836   862   863      2
   837   867   868      2
   838   867   871      1
   839   867   874      1
   840   868   869      1
   841   868   875      1
   842   869   870      1
   843   869   873      2
   844   870   871      1
   845   871   872      2
   846   876   877      2
   847   876   880      1
   848   876   883      1
   849   877   878      1
   850   877   884      1
   851   878   879      1
   852   878   882      2
   853   879   880      1
   854   880   881      2
   855   885   886      2
   856   885   889      1
   857   885   892      1
   858   886   887      1
   859   886   893      1
   860   887   888      1
   861   887   891      2
   862   888   889      1
   863   889   890      2
   864   894   895      2
   865   894   898      1
   866   894   901      1
   867   895   896      1
   868   895   902      1
   869   896   897      1
   870   896   900      2
   871   897   898      1
   872   898   899      2
   873   903   904      1
   874   903   908      1
   875   903   909      1
   876   904   905      1
   877   904   910      1
   878   904   913      1
   879   905   906      1
   880   905   907      2
   881   906   911      1
   882   906   912      1
   883   913   914      1
   884   913   918      1
   885   913   919      1
   886   914   915      1
   887   914   920      1
   888   914   923      1
   889   915   916      1
   890   915   917      2
   891   916   921      1
   892   916   922      1
   893   923   924      1
   894   923   928      1
   895   923   929      1
   896   924   925      1
   897   924   930      1
   898   924   933      1
   899   925   926      1
   900   925   927      2
   901   926   931      1
   902   926   932      1
   903   933   934      1
   904   933   938      1
   905   933   939      1
   906   934   935      1
   907   934   940      1
   908   934   943      1
   909   935   936      1
   910   935   937      2
   911   936   941      1
   912   936   942      1
   913   943   944      1
   914   943   948      1
   915   943   949      1
   916   944   945      1
   917   944   950      1
   918   944   953      1
   919   945   946      1
   920   945   947      2
   921   946   951      1
   922   946   952      1
   923   953   954      1
   924   953   958      1
   925   953   959      1
   926   954   955      1
   927   954   960      1
   928   954   963      1
   929   955   956      1
   930   955   957      2
   931   956   961      1
   932   956   962      1
   933   963   964      1
   934   963   968      1
   935   963   969      1
   936   964   965      1
   937   964   970      1
   938   964   973      1
   939   965   966      1
   940   965   967      2
   941   966   971      1
   942   966   972      1
   943   973   974      1
   944   973   978      1
   945   973   979      1
   946   974   975      1
   947   974   980      1
   948   974   983      1
   949   975   976      1
   950   975   977      2
   951   976   981      1
   952   976   982      1
   953   983   984      1
   954   983   988      1
   955   983   989      1
   956   984   985      1
   957   984   990      1
   958   984   993      1
   959   985   986      1
   960   985   987      2
   961   986   991      1
   962   986   992      1
   963   993   994      1
   964   993   998      1
   965   993   999      1
   966   994   995      1
   967   994  1000      1
   968   994  1003      1
   969   995   996      1
   970   995   997      2
   971   996  1001      1
   972   996  1002      1
   973  1003  1004      1
   974  1003  1008      1
   975  1003  1009      1
   976  1004  1005      1
   977  1004  1010      1
   978  1004  1013      1
   979  1005  1006      1
   980  1005  1007      2
   981  1006  1011      1
   982  1006  1012      1
   983  1013  1014      1
   984  1013  1018      1
   985  1013  1019      1
   986  1014  1015      1
   987  1014  1020      1
   988  1014  1023      1
   989  1015  1016      1
   990  1015  1017      2
   991  1016  1021      1
   992  1016  1022      1
   993  1023  1024      1
   994  1023  1028      1
   995  1023  1029      1
   996  1024  1025      1
   997  1024  1030      1
   998  1024  1033      1
   999  1025  1026      1
  1000  1025  1027      2
  1001  1026  1031      1
  1002  1026  1032      1
  1003  1033  1034      1
  1004  1033  1038      1
  1005  1033  1039      1
  1006  1034  1035      1
  1007  1034  1040      1
  1008  1034  1043      1
  1009  1035  1036      1
  1010  1035  1037      2
  1011  1036  1041      1
  1012  1036  1042      1
  1013  1043  1044      1
  1014  1043  1048      1
  1015  1043  1049      1
  1016  1044  1045      1
  1017  1044  1050      1
  1018  1044  1053      1
  1019  1045  1046      1
  1020  1045  1047      2
  1021  1046  1051      1
  1022  1046  1052      1
  1023  1053  1054      1
  1024  1053  1058      1
  1025  1053  1059      1
  1026  1054  1055      1
  1027  1054  1060      1
  1028  1054  1063      1
  1029  1055  1056      1
  1030  1055  1057      2
  1031  1056  1061      1
  1032  1056  1062      1
  1033  1063  1064      1
  1034  1063  1068      1
  1035  1063  1069      1
  1036  1064  1065      1
  1037  1064  1070      1
  1038  1065  1066      1
  1039  1065  1067      2
  1040  1066  1071      1
  1041  1066  1072      1
  1042  1073  1074      1
  1043  1073  1078      1
  1044  1073  1079      1
  1045  1074  1075      1
  1046  1074  1080      1
  1047  1074  1083      1
  1048  1075  1076      1
  1049  1075  1077      2
  1050  1076  1081      1
  1051  1076  1082      1
  1052  1083  1084      1
  1053  1083  1088      1
  1054  1083  1089      1
  1055  1084  1085      1
  1056  1084  1090      1
  1057  1084  1093      1
  1058  1085  1086      1
  1059  1085  1087      2
  1060  1086  1091      1
  1061  1086  1092      1
  1062  1093  1094      1
  1063  1093  1098      1
  1064  1093  1099      1
  1065  1094  1095      1
  1066  1094  1100      1
  1067  1094  1103      1
  1068  1095  1096      1
  1069  1095  1097      2
  1070  1096  1101      1
  1071  1096  1102      1
  1072  1103  1104      1
  1073  1103  1108      1
  1074  1103  1109      1
  1075  1104  1105      1
  1076  1104  1110      1
  1077  1104  1113      1
  1078  1105  1106      1
  1079  1105  1107      2
  1080  1106  1111      1
  1081  1106  1112      1
  1082  1113  1114      1
  1083  1113  1118      1
  1084  1113  1119      1
  1085  1114  1115      1
  1086  1114  1120      1
  1087  1114  1123      1
  1088  1115  1116      1
  1089  1115  1117      2
  1090  1116  1121      1
  1091  1116  1122      1
  1092  1123  1124      1
  1093  1123  1128      1
  1094  1123  1129      1
  1095  1124  1125      1
  1096  1124  1130      1
  1097  1124  1133      1
  1098  1125  1126      1
  1099  1125  1127      2
  1100  1126  1131      1
  1101  1126  1132      1
  1102  1133  1134      1
  1103  1133  1138      1
  1104  1133  1139      1
  1105  1134  1135      1
  1106  1134  1140      1
  1107  1134  1143      1
  1108  1135  1136      1
  1109  1135  1137      2
  1110  1136  1141      1
  1111  1136  1142      1
  1112  1143  1144      1
  1113  1143  1148      1
  1114  1143  1149      1
  1115  1144  1145      1
  1116  1144  1150      1
  1117  1144  1153      1
  1118  1145  1146      1
  1119  1145  1147      2
  1120  1146  1151      1
  1121  1146  1152      1
  1122  1153  1154      1
  1123  1153  1158      1
  1124  1153  1159      1
  1125  1154  1155      1
  1126  1154  1160      1
  1127  1154  1163      1
  1128  1155  1156      1
  1129  1155  1157      2
  1130  1156  1161      1
  1131  1156  1162      1
  1132  1163  1164      1
  1133  1163  1168      1
  1134  1163  1169      1
  1135  1164  1165      1
  1136  1164  1170      1
  1137  1164  1173      1
  1138  1165  1166      1
  1139  1165  1167      2
  1140  1166  1171      1
  1141  1166  1172      1
  1142  1173  1174      1
  1143  1173  1178      1
  1144  1173  1179      1
  1145  1174  1175      1
  1146  1174  1180      1
  1147  1174  1183      1
  1148  1175  1176      1
  1149  1175  1177      2
  1150  1176  1181      1
  1151  1176  1182      1
  1152  1183  1184      1
  1153  1183  1188      1
  1154  1183  1189      1
  1155  1184  1185      1
  1156  1184  1190      1
  1157  1184  1193      1
  1158  1185  1186      1
  1159  1185  1187      2
  1160  1186  1191      1
  1161  1186  1192      1
  1162  1193  1194      1
  1163  1193  1198      1
  1164  1193  1199      1
  1165  1194  1195      1
  1166  1194  1200      1
  1167  1194  1203      1
  1168  1195  1196      1
  1169  1195  1197      2
  1170  1196  1201      1
  1171  1196  1202      1
  1172  1203  1204      1
  1173  1203  1208      1
  1174  1203  1209      1
  1175  1204  1205      1
  1176  1204  1210      1
  1177  1204  1213      1
  1178  1205  1206      1
  1179  1205  1207      2
  1180  1206  1211      1
  1181  1206  1212      1
  1182  1213  1214      1
  1183  1213  1218      1
  1184  1213  1219      1
  1185  1214  1215      1
  1186  1214  1220      1
  1187  1215  1216      1
  1188  1215  1217      2
  1189  1216  1221      1
  1190  1216  1222      1
  1191  1223  1224      1
  1192  1223  1228      1
  1193  1223  1229      1
  1194  1224  1225      1
  1195  1224  1230      1
  1196  1224  1233      1
  1197  1225  1226      1
  1198  1225  1227      2
  1199  1226  1231      1
  1200  1226  1232      1
  1201  1233  1234      1
  1202  1233  1238      1
  1203  1233  1239      1
  1204  1234  1235      1
  1205  1234  1240      1
  1206  1234  1243      1
  1207  1235  1236      1
  1208  1235  1237      2
  1209  1236  1241      1
  1210  1236  1242      1
  1211  1243  1244      1
  1212  1243  1248      1
  1213  1243  1249      1
  1214  1244  1245      1
  1215  1244  1250      1
  1216  1244  1253      1
  1217  1245  1246      1
  1218  1245  1247      2
  1219  1246  1251      1
  1220  1246  1252      1
  1221  1253  1254      1
  1222  1253  1258      1
  1223  1253  1259      1
  1224  1254  1255      1
  1225  1254  1260      1
  1226  1254  1263      1
  1227  1255  1256      1
  1228  1255  1257      2
  1229  1256  1261      1
  1230  1256  1262      1
  1231  1263  1264      1
  1232  1263  1268      1
  1233  1263  1269      1
  1234  1264  1265      1
  1235  1264  1270      1
  1236  1264  1273      1
  1237  1265  1266      1
  1238  1265  1267      2
  1239  1266  1271      1
  1240  1266  1272      1
  1241  1273  1274      1
  1242  1273  1278      1
  1243  1273  1279      1
  1244  1274  1275      1
  1245  1274  1280      1
  1246  1274  1283      1
  1247  1275  1276      1
  1248  1275  1277      2
  1249  1276  1281      1
  1250  1276  1282      1
  1251  1283  1284      1
  1252  1283  1288      1
  1253  1283  1289      1
  1254  1284  1285      1
  1255  1284  1290      1
  1256  1284  1293      1
  1257  1285  1286      1
  1258  1285  1287      2
  1259  1286  1291      1
  1260  1286  1292      1
  1261  1293  1294      1
  1262  1293  1298      1
  1263  1293  1299      1
  1264  1294  1295      1
  1265  1294  1300      1
  1266  1294  1303      1
  1267  1295  1296      1
  1268  1295  1297      2
  1269  1296  1301      1
  1270  1296  1302      1
  1271  1303  1304      1
  1272  1303  1308      1
  1273  1303  1309      1
  1274  1304  1305      1
  1275  1304  1310      1
  1276  1304  1313      1
  1277  1305  1306      1
  1278  1305  1307      2
  1279  1306  1311      1
  1280  1306  1312      1
  1281  1313  1314      1
  1282  1313  1318      1
  1283  1313  1319      1
  1284  1314  1315      1
  1285  1314  1320      1
  1286  1314  1323      1
  1287  1315  1316      1
  1288  1315  1317      2
  1289  1316  1321      1
  1290  1316  1322      1
  1291  1323  1324      1
  1292  1323  1328      1
  1293  1323  1329      1
  1294  1324  1325      1
  1295  1324  1330      1
  1296  1324  1333      1
  1297  1325  1326      1
  1298  1325  1327      2
  1299  1326  1331      1
  1300  1326  1332      1
  1301  1333  1334      1
  1302  1333  1338      1
  1303  1333  1339      1
  1304  1334  1335      1
  1305  1334  1340      1
  1306  1334  1343      1
  1307  1335  1336      1
  1308  1335  1337      2
  1309  1336  1341      1
  1310  1336  1342      1
  1311  1343  1344      1
  1312  1343  1348      1
  1313  1343  1349      1
  1314  1344  1345      1
  1315  1344  1350      1
  1316  1345  1346      1
  1317  1345  1347      2
  1318  1346  1351      1
  1319  1346  1352      1
  1320  1353  1354      1
  1321  1353  1358      1
  1322  1353  1359      1
  1323  1354  1355      1
  1324  1354  1360      1
  1325  1354  1363      1
  1326  1355  1356      1
  1327  1355  1357      2
  1328  1356  1361      1
  1329  1356  1362      1
  1330  1363  1364      1
  1331  1363  1368      1
  1332  1363  1369      1
  1333  1364  1365      1
  1334  1364  1370      1
  1335  1364  1373      1
  1336  1365  1366      1
  1337  1365  1367      2
  1338  1366  1371      1
  1339  1366  1372      1
  1340  1373  1374      1
  1341  1373  1378      1
  1342  1373  1379      1
  1343  1374  1375      1
  1344  1374  1380      1
  1345  1374  1383      1
  1346  1375  1376      1
  1347  1375  1377      2
  1348  1376  1381      1
  1349  1376  1382      1
  1350  1383  1384      1
  1351  1383  1388      1
  1352  1383  1389      1
  1353  1384  1385      1
  1354  1384  1390      1
  1355  1384  1393      1
  1356  1385  1386      1
  1357  1385  1387      2
  1358  1386  1391      1
  1359  1386  1392      1
  1360  1393  1394      1
  1361  1393  1398      1
  1362  1393  1399      1
  1363  1394  1395      1
  1364  1394  1400      1
  1365  1394  1403      1
  1366  1395  1396      1
  1367  1395  1397      2
  1368  1396  1401      1
  1369  1396  1402      1
  1370  1403  1404      1
  1371  1403  1408      1
  1372  1403  1409      1
  1373  1404  1405      1
  1374  1404  1410      1
  1375  1404  1413      1
  1376  1405  1406      1
  1377  1405  1407      2
  1378  1406  1411      1
  1379  1406  1412      1
  1380  1413  1414      1
  1381  1413  1418      1
  1382  1413  1419      1
  1383  1414  1415      1
  1384  1414  1420      1
  1385  1415  1416      1
  1386  1415  1417      2
  1387  1416  1421      1
  1388  1416  1422      1
  1389  1423  1424      1
  1390  1423  1428      1
  1391  1423  1429      1
  1392  1424  1425      1
  1393  1424  1430      1
  1394  1424  1433      1
  1395  1425  1426      1
  1396  1425  1427      2
  1397  1426  1431      1
  1398  1426  1432      1
  1399  1433  1434      1
  1400  1433  1438      1
  1401  1433  1439      1
  1402  1434  1435      1
  1403  1434  1440      1
  1404  1434  1443      1
  1405  1435  1436      1
  1406  1435  1437      2
  1407  1436  1441      1
  1408  1436  1442      1
  1409  1443  1444      1
  1410  1443  1448      1
  1411  1443  1449      1
  1412  1444  1445      1
  1413  1444  1450      1
  1414  1444  1453      1
  1415  1445  1446      1
  1416  1445  1447      2
  1417  1446  1451      1
  1418  1446  1452      1
  1419  1453  1454      1
  1420  1453  1458      1
  1421  1453  1459      1
  1422  1454  1455      1
  1423  1454  1460      1
  1424  1454  1463      1
  1425  1455  1456      1
  1426  1455  1457      2
  1427  1456  1461      1
  1428  1456  1462      1
  1429  1463  1464      1
  1430  1463  1468      1
  1431  1463  1469      1
  1432  1464  1465      1
  1433  1464  1470      1
  1434  1464  1473      1
  1435  1465  1466      1
  1436  1465  1467      2
  1437  1466  1471      1
  1438  1466  1472      1
  1439  1473  1474      1
  1440  1473  1478      1
  1441  1473  1479      1
  1442  1474  1475      1
  1443  1474  1480      1
  1444  1474  1483      1
  1445  1475  1476      1
  1446  1475  1477      2
  1447  1476  1481      1
  1448  1476  1482      1
  1449  1483  1484      1
  1450  1483  1488      1
  1451  1483  1489      1
  1452  1484  1485      1
  1453  1484  1490      1
  1454  1484  1493      1
  1455  1485  1486      1
  1456  1485  1487      2
  1457  1486  1491      1
  1458  1486  1492      1
  1459  1493  1494      1
  1460  1493  1498      1
  1461  1493  1499      1
  1462  1494  1495      1
  1463  1494  1500      1
  1464  1494  1503      1
  1465  1495  1496      1
  1466  1495  1497      2
  1467  1496  1501      1
  1468  1496  1502      1
  1469  1503  1504      1
  1470  1503  1508      1
  1471  1503  1509      1
  1472  1504  1505      1
  1473  1504  1510      1
  1474  1505  1506      1
  1475  1505  1507      2
  1476  1506  1511      1
  1477  1506  1512      1
  1478  1513  1514      1
  1479  1513  1518      1
  1480  1513  1519      1
  1481  1514  1515      1
  1482  1514  1520      1
  1483  1514  1523      1
  1484  1515  1516      1
  1485  1515  1517      2
  1486  1516  1521      1
  1487  1516  1522      1
  1488  1523  1524      1
  1489  1523  1528      1
  1490  1523  1529      1
  1491  1524  1525      1
  1492  1524  1530      1
  1493  1524  1533      1
  1494  1525  1526      1
  1495  1525  1527      2
  1496  1526  1531      1
  1497  1526  1532      1
  1498  1533  1534      1
  1499  1533  1538      1
  1500  1533  1539      1
  1501  1534  1535      1
  1502  1534  1540      1
  1503  1534  1543      1
  1504  1535  1536      1
  1505  1535  1537      2
  1506  1536  1541      1
  1507  1536  1542      1
  1508  1543  1544      1
  1509  1543  1548      1
  1510  1543  1549      1
  1511  1544  1545      1
  1512  1544  1550      1
  1513  1544  1553      1
  1514  1545  1546      1
  1515  1545  1547      2
  1516  1546  1551      1
  1517  1546  1552      1
  1518  1553  1554      1
  1519  1553  1558      1
  1520  1553  1559      1
  1521  1554  1555      1
  1522  1554  1560      1
  1523  1554  1563      1
  1524  1555  1556      1
  1525  1555  1557      2
  1526  1556  1561      1
  1527  1556  1562      1
  1528  1563  1564      1
  1529  1563  1568      1
  1530  1563  1569      1
  1531  1564  1565      1
  1532  1564  1570      1
  1533  1565  1566      1
  1534  1565  1567      2
  1535  1566  1571      1
  1536  1566  1572      1
  1537  1573  1574      1
  1538  1573  1578      1
  1539  1573  1579      1
  1540  1574  1575      1
  1541  1574  1580      1
  1542  1574  1583      1
  1543  1575  1576      1
  1544  1575  1577      2
  1545  1576  1581      1
  1546  1576  1582      1
  1547  1583  1584      1
  1548  1583  1588      1
  1549  1583  1589      1
  1550  1584  1585      1
  1551  1584  1590      1
  1552  1584  1593      1
  1553  1585  1586      1
  1554  1585  1587      2
  1555  1586  1591      1
  1556  1586  1592      1
  1557  1593  1594      1
  1558  1593  1598      1
  1559  1593  1599      1
  1560  1594  1595      1
  1561  1594  1600      1
  1562  1594  1603      1
  1563  1595  1596      1
  1564  1595  1597      2
  1565  1596  1601      1
  1566  1596  1602      1
  1567  1603  1604      1
  1568  1603  1608      1
  1569  1603  1609      1
  1570  1604  1605      1
  1571  1604  1610      1
  1572  1604  1613      1
  1573  1605  1606      1
  1574  1605  1607      2
  1575  1606  1611      1
  1576  1606  1612      1
  1577  1613  1614      1
  1578  1613  1618      1
  1579  1613  1619      1
  1580  1614  1615      1
  1581  1614  1620      1
  1582  1614  1623      1
  1583  1615  1616      1
  1584  1615  1617      2
  1585  1616  1621      1
  1586  1616  1622      1
  1587  1623  1624      1
  1588  1623  1628      1
  1589  1623  1629      1
  1590  1624  1625      1
  1591  1624  1630      1
  1592  1624  1633      1
  1593  1625  1626      1
  1594  1625  1627      2
  1595  1626  1631      1
  1596  1626  1632      1
  1597  1633  1634      1
  1598  1633  1638      1
  1599  1633  1639      1
  1600  1634  1635      1
  1601  1634  1640      1
  1602  1634  1643      1
  1603  1635  1636      1
  1604  1635  1637      2
  1605  1636  1641      1
  1606  1636  1642      1
  1607  1643  1644      1
  1608  1643  1648      1
  1609  1643  1649      1
  1610  1644  1645      1
  1611  1644  1650      1
  1612  1644  1653      1
  1613  1645  1646      1
  1614  1645  1647      2
  1615  1646  1651      1
  1616  1646  1652      1
  1617  1653  1654      1
  1618  1653  1658      1
  1619  1653  1659      1
  1620  1654  1655      1
  1621  1654  1660      1
  1622  1655  1656      1
  1623  1655  1657      2
  1624  1656  1661      1
  1625  1656  1662      1
  1626  1663  1664      1
  1627  1663  1668      1
  1628  1663  1669      1
  1629  1664  1665      1
  1630  1664  1670      1
  1631  1664  1673      1
  1632  1665  1666      1
  1633  1665  1667      2
  1634  1666  1671      1
  1635  1666  1672      1
  1636  1673  1674      1
  1637  1673  1678      1
  1638  1673  1679      1
  1639  1674  1675      1
  1640  1674  1680      1
  1641  1674  1683      1
  1642  1675  1676      1
  1643  1675  1677      2
  1644  1676  1681      1
  1645  1676  1682      1
  1646  1683  1684      1
  1647  1683  1688      1
  1648  1683  1689      1
  1649  1684  1685      1
  1650  1684  1690      1
  1651  1684  1693      1
  1652  1685  1686      1
  1653  1685  1687      2
  1654  1686  1691      1
  1655  1686  1692      1
  1656  1693  1694      1
  1657  1693  1698      1
  1658  1693  1699      1
  1659  1694  1695      1
  1660  1694  1700      1
  1661  1694  1703      1
  1662  1695  1696      1
  1663  1695  1697      2
  1664  1696  1701      1
  1665  1696  1702      1
  1666  1703  1704      1
  1667  1703  1708      1
  1668  1703  1709      1
  1669  1704  1705      1
  1670  1704  1710      1
  1671  1704  1713      1
  1672  1705  1706      1
  1673  1705  1707      2
  1674  1706  1711      1
  1675  1706  1712      1
  1676  1713  1714      1
  1677  1713  1718      1
  1678  1713  1719      1
  1679  1714  1715      1
  1680  1714  1720      1
  1681  1714  1723      1
  1682  1715  1716      1
  1683  1715  1717      2
  1684  1716  1721      1
  1685  1716  1722      1
  1686  1723  1724      1
  1687  1723  1728      1
  1688  1723  1729      1
  1689  1724  1725      1
  1690  1724  1730      1
  1691  1725  1726      1
  1692  1725  1727      2
  1693  1726  1731      1
  1694  1726  1732      1
  1695  1733  1734      1
  1696  1733  1738      1
  1697  1733  1739      1
  1698  1734  1735      1
  1699  1734  1740      1
  1700  1734  1743      1
  1701  1735  1736      1
  1702  1735  1737      2
  1703  1736  1741      1
  1704  1736  1742      1
  1705  1743  1744      1
  1706  1743  1748      1
  1707  1743  1749      1
  1708  1744  1745      1
  1709  1744  1750      1
  1710  1744  1753      1
  1711  1745  1746      1
  1712  1745  1747      2
  1713  1746  1751      1
  1714  1746  1752      1
  1715  1753  1754      1
  1716  1753  1758      1
  1717  1753  1759      1
  1718  1754  1755      1
  1719  1754  1760      1
  1720  1754  1763      1
  1721  1755  1756      1
  1722  1755  1757      2
  1723  1756  1761      1
  1724  1756  1762      1
  1725  1763  1764      1
  1726  1763  1768      1
  1727  1763  1769      1
  1728  1764  1765      1
  1729  1764  1770      1
  1730  1764  1773      1
  1731  1765  1766      1
  1732  1765  1767      2
  1733  1766  1771      1
  1734  1766  1772      1
  1735  1773  1774      1
  1736  1773  1778      1
  1737  1773  1779      1
  1738  1774  1775      1
  1739  1774  1780      1
  1740  1774  1783      1
  1741  1775  1776      1
  1742  1775  1777      2
  1743  1776  1781      1
  1744  1776  1782      1
  1745  1783  1784      1
  1746  1783  1788      1
  1747  1783  1789      1
  1748  1784  1785      1
  1749  1784  1790      1
  1750  1784  1793      1
  1751  1785  1786      1
  1752  1785  1787      2
  1753  1786  1791      1
  1754  1786  1792      1
  1755  1793  1794      1
  1756  1793  1798      1
  1757  1793  1799      1
  1758  1794  1795      1
  1759  1794  1800      1
  1760  1794  1803      1
  1761  1795  1796      1
  1762  1795  1797      2
  1763  1796  1801      1
  1764  1796  1802      1
  1765  1803  1804      1
  1766  1803  1808      1
  1767  1803  1809      1
  1768  1804  1805      1
  1769  1804  1810      1
  1770  1805  1806      1
  1771  1805  1807      2
  1772  1806  1811      1
  1773  1806  1812      1
  1774  1813  1814      1
  1775  1813  1818      1
  1776  1813  1819      1
  1777  1814  1815      1
  1778  1814  1820      1
  1779  1814  1823      1
  1780  1815  1816      1
  1781  1815  1817      2
  1782  1816  1821      1
  1783  1816  1822      1
  1784  1823  1824      1
  1785  1823  1828      1
  1786  1823  1829      1
  1787  1824  1825      1
  1788  1824  1830      1
  1789  1824  1833      1
  1790  1825  1826      1
  1791  1825  1827      2
  1792  1826  1831      1
  1793  1826  1832      1
  1794  1833  1834      1
  1795  1833  1838      1
  1796  1833  1839      1
  1797  1834  1835      1
  1798  1834  1840      1
  1799  1834  1843      1
  1800  1835  1836      1
  1801  1835  1837      2
  1802  1836  1841      1
  1803  1836  1842      1
  1804  1843  1844      1
  1805  1843  1848      1
  1806  1843  1849      1
  1807  1844  1845      1
  1808  1844  1850      1
  1809  1844  1853      1
  1810  1845  1846      1
  1811  1845  1847      2
  1812  1846  1851      1
  1813  1846  1852      1
  1814  1853  1854      1
  1815  1853  1858      1
  1816  1853  1859      1
  1817  1854  1855      1
  1818  1854  1860      1
  1819  1854  1863      1
  1820  1855  1856      1
  1821  1855  1857      2
  1822  1856  1861      1
  1823  1856  1862      1
  1824  1863  1864      1
  1825  1863  1868      1
  1826  1863  1869      1
  1827  1864  1865      1
  1828  1864  1870      1
  1829  1864  1873      1
  1830  1865  1866      1
  1831  1865  1867      2
  1832  1866  1871      1
  1833  1866  1872      1
  1834  1873  1874      1
  1835  1873  1878      1
  1836  1873  1879      1
  1837  1874  1875      1
  1838  1874  1880      1
  1839  1874  1883      1
  1840  1875  1876      1
  1841  1875  1877      2
  1842  1876  1881      1
  1843  1876  1882      1
  1844  1883  1884      1
  1845  1883  1888      1
  1846  1883  1889      1
  1847  1884  1885      1
  1848  1884  1890      1
  1849  1884  1893      1
  1850  1885  1886      1
  1851  1885  1887      2
  1852  1886  1891      1
  1853  1886  1892      1
  1854  1893  1894      1
  1855  1893  1898      1
  1856  1893  1899      1
  1857  1894  1895      1
  1858  1894  1900      1
  1859  1894  1903      1
  1860  1895  1896      1
  1861  1895  1897      2
  1862  1896  1901      1
  1863  1896  1902      1
  1864  1903  1904      1
  1865  1903  1908      1
  1866  1903  1909      1
  1867  1904  1905      1
  1868  1904  1910      1
  1869  1904  1913      1
  1870  1905  1906      1
  1871  1905  1907      2
  1872  1906  1911      1
  1873  1906  1912      1
  1874  1913  1914      1
  1875  1913  1918      1
  1876  1913  1919      1
  1877  1914  1915      1
  1878  1914  1920      1
  1879  1915  1916      1
  1880  1915  1917      2
  1881  1916  1921      1
  1882  1916  1922      1
  1883  1923  1924      1
  1884  1923  1928      1
  1885  1923  1929      1
  1886  1924  1925      1
  1887  1924  1930      1
  1888  1924  1933      1
  1889  1925  1926      1
  1890  1925  1927      2
  1891  1926  1931      1
  1892  1926  1932      1
  1893  1933  1934      1
  1894  1933  1938      1
  1895  1933  1939      1
  1896  1934  1935      1
  1897  1934  1940      1
  1898  1934  1943      1
  1899  1935  1936      1
  1900  1935  1937      2
  1901  1936  1941      1
  1902  1936  1942      1
  1903  1943  1944      1
  1904  1943  1948      1
  1905  1943  1949      1
  1906  1944  1945      1
  1907  1944  1950      1
  1908  1944  1953      1
  1909  1945  1946      1
  1910  1945  1947      2
  1911  1946  1951      1
  1912  1946  1952      1
  1913  1953  1954      1
  1914  1953  1958      1
  1915  1953  1959      1
  1916  1954  1955      1
  1917  1954  1960      1
  1918  1954  1963      1
  1919  1955  1956      1
  1920  1955  1957      2
  1921  1956  1961      1
  1922  1956  1962      1
  1923  1963  1964      1
  1924  1963  1968      1
  1925  1963  1969      1
  1926  1964  1965      1
  1927  1964  1970      1
  1928  1964  1973      1
  1929  1965  1966      1
  1930  1965  1967      2
  1931  1966  1971      1
  1932  1966  1972      1
  1933  1973  1974      1
  1934  1973  1978      1
  1935  1973  1979      1
  1936  1974  1975      1
  1937  1974  1980      1
  1938  1974  1983      1
  1939  1975  1976      1
  1940  1975  1977      2
  1941  1976  1981      1
  1942  1976  1982      1
  1943  1983  1984      1
  1944  1983  1988      1
  1945  1983  1989      1
  1946  1984  1985      1
  1947  1984  1990      1
  1948  1984  1993      1
  1949  1985  1986      1
  1950  1985  1987      2
  1951  1986  1991      1
  1952  1986  1992      1
  1953  1993  1994      1
  1954  1993  1998      1
  1955  1993  1999      1
  1956  1994  1995      1
  1957  1994  2000      1
  1958  1994  2003      1
  1959  1995  1996      1
  1960  1995  1997      2
  1961  1996  2001      1
  1962  1996  2002      1
  1963  2003  2004      1
  1964  2003  2008      1
  1965  2003  2009      1
  1966  2004  2005      1
  1967  2004  2010      1
  1968  2004  2013      1
  1969  2005  2006      1
  1970  2005  2007      2
  1971  2006  2011      1
  1972  2006  2012      1
  1973  2013  2014      1
  1974  2013  2018      1
  1975  2013  2019      1
  1976  2014  2015      1
  1977  2014  2020      1
  1978  2014  2023      1
  1979  2015  2016      1
  1980  2015  2017      2
  1981  2016  2021      1
  1982  2016  2022      1
  1983  2023  2024      1
  1984  2023  2028      1
  1985  2023  2029      1
  1986  2024  2025      1
  1987  2024  2030      1
  1988  2024  2033      1
  1989  2025  2026      1
  1990  2025  2027      2
  1991  2026  2031      1
  1992  2026  2032      1
  1993  2033  2034      1
  1994  2033  2038      1
  1995  2033  2039      1
  1996  2034  2035      1
  1997  2034  2040      1
  1998  2034  2043      1
  1999  2035  2036      1
  2000  2035  2037      2
  2001  2036  2041      1
  2002  2036  2042      1
  2003  2043  2044      1
  2004  2043  2048      1
  2005  2043  2049      1
  2006  2044  2045      1
  2007  2044  2050      1
  2008  2044  2053      1
  2009  2045  2046      1
  2010  2045  2047      2
  2011  2046  2051      1
  2012  2046  2052      1
  2013  2053  2054      1
  2014  2053  2058      1
  2015  2053  2059      1
  2016  2054  2055      1
  2017  2054  2060      1
  2018  2054  2063      1
  2019  2055  2056      1
  2020  2055  2057      2
  2021  2056  2061      1
  2022  2056  2062      1
  2023  2063  2064      1
  2024  2063  2068      1
  2025  2063  2069      1
  2026  2064  2065      1
  2027  2064  2070      1
  2028  2064  2073      1
  2029  2065  2066      1
  2030  2065  2067      2
  2031  2066  2071      1
  2032  2066  2072      1
  2033  2073  2074      1
  2034  2073  2078      1
  2035  2073  2079      1
  2036  2074  2075      1
  2037  2074  2080      1
  2038  2074  2083      1
  2039  2075  2076      1
  2040  2075  2077      2
  2041  2076  2081      1
  2042  2076  2082      1
  2043  2083  2084      1
  2044  2083  2088      1
  2045  2083  2089      1
  2046  2084  2085      1
  2047  2084  2090      1
  2048  2084  2093      1
  2049  2085  2086      1
  2050  2085  2087      2
  2051  2086  2091      1
  2052  2086  2092      1
  2053  2093  2094      1
  2054  2093  2098      1
  2055  2093  2099      1
  2056  2094  2095      1
  2057  2094  2100      1
  2058  2094  2103      1
  2059  2095  2096      1
  2060  2095  2097      2
  2061  2096  2101      1
  2062  2096  2102      1
  2063  2103  2104      1
  2064  2103  2108      1
  2065  2103  2109      1
  2066  2104  2105      1
  2067  2104  2110      1
  2068  2105  2106      1
  2069  2105  2107      2
  2070  2106  2111      1
  2071  2106  2112      1
  2072  2113  2114      1
  2073  2113  2118      1
  2074  2113  2119      1
  2075  2114  2115      1
  2076  2114  2120      1
  2077  2114  2123      1
  2078  2115  2116      1
  2079  2115  2117      2
  2080  2116  2121      1
  2081  2116  2122      1
  2082  2123  2124      1
  2083  2123  2128      1
  2084  2123  2129      1
  2085  2124  2125      1
  2086  2124  2130      1
  2087  2124  2133      1
  2088  2125  2126      1
  2089  2125  2127      2
  2090  2126  2131      1
  2091  2126  2132      1
  2092  2133  2134      1
  2093  2133  2138      1
  2094  2133  2139      1
  2095  2134  2135      1
  2096  2134  2140      1
  2097  2134  2143      1
  2098  2135  2136      1
  2099  2135  2137      2
  2100  2136  2141      1
  2101  2136  2142      1
  2102  2143  2144      1
  2103  2143  2148      1
  2104  2143  2149      1
  2105  2144  2145      1
  2106  2144  2150      1
  2107  2144  2153      1
  2108  2145  2146      1
  2109  2145  2147      2
  2110  2146  2151      1
  2111  2146  2152      1
  2112  2153  2154      1
  2113  2153  2158      1
  2114  2153  2159      1
  2115  2154  2155      1
  2116  2154  2160      1
  2117  2154  2163      1
  2118  2155  2156      1
  2119  2155  2157      2
  2120  2156  2161      1
  2121  2156  2162      1
  2122  2163  2164      1
  2123  2163  2168      1
  2124  2163  2169      1
  2125  2164  2165      1
  2126  2164  2170      1
  2127  2164  2173      1
  2128  2165  2166      1
  2129  2165  2167      2
  2130  2166  2171      1
  2131  2166  2172      1
  2132  2173  2174      1
  2133  2173  2178      1
  2134  2173  2179      1
  2135  2174  2175      1
  2136  2174  2180      1
  2137  2174  2183      1
  2138  2175  2176      1
  2139  2175  2177      2
  2140  2176  2181      1
  2141  2176  2182      1
  2142  2183  2184      1
  2143  2183  2188      1
  2144  2183  2189      1
  2145  2184  2185      1
  2146  2184  2190      1
  2147  2184  2193      1
  2148  2185  2186      1
  2149  2185  2187      2
  2150  2186  2191      1
  2151  2186  2192      1
  2152  2193  2194      1
  2153  2193  2198      1
  2154  2193  2199      1
  2155  2194  2195      1
  2156  2194  2200      1
  2157  2194  2203      1
  2158  2195  2196      1
  2159  2195  2197      2
  2160  2196  2201      1
  2161  2196  2202      1
  2162  2203  2204      1
  2163  2203  2208      1
  2164  2203  2209      1
  2165  2204  2205      1
  2166  2204  2210      1
  2167  2204  2213      1
  2168  2205  2206      1
  2169  2205  2207      2
  2170  2206  2211      1
  2171  2206  2212      1
  2172  2213  2214      1
  2173  2213  2218      1
  2174  2213  2219      1
  2175  2214  2215      1
  2176  2214  2220      1
  2177  2214  2223      1
  2178  2215  2216      1
  2179  2215  2217      2
  2180  2216  2221      1
  2181  2216  2222      1
  2182  2223  2224      1
  2183  2223  2228      1
  2184  2223  2229      1
  2185  2224  2225      1
  2186  2224  2230      1
  2187  2224  2233      1
  2188  2225  2226      1
  2189  2225  2227      2
  2190  2226  2231      1
  2191  2226  2232      1
  2192  2233  2234      1
  2193  2233  2238      1
  2194  2233  2239      1
  2195  2234  2235      1
  2196  2234  2240      1
  2197  2234  2243      1
  2198  2235  2236      1
  2199  2235  2237      2
  2200  2236  2241      1
  2201  2236  2242      1
  2202  2243  2244      1
  2203  2243  2248      1
  2204  2243  2249      1
  2205  2244  2245      1
  2206  2244  2250      1
  2207  2244  2253      1
  2208  2245  2246      1
  2209  2245  2247      2
  2210  2246  2251      1
  2211  2246  2252      1
  2212  2253  2254      1
  2213  2253  2258      1
  2214  2253  2259      1
  2215  2254  2255      1
  2216  2254  2260      1
  2217  2254  2263      1
  2218  2255  2256      1
  2219  2255  2257      2
  2220  2256  2261      1
  2221  2256  2262      1
  2222  2263  2264      1
  2223  2263  2268      1
  2224  2263  2269      1
  2225  2264  2265      1
  2226  2264  2270      1
  2227  2265  2266      1
  2228  2265  2267      2
  2229  2266  2271      1
  2230  2266  2272      1
  2231  2273  2274      1
  2232  2273  2278      1
  2233  2273  2279      1
  2234  2274  2275      1
  2235  2274  2280      1
  2236  2274  2283      1
  2237  2275  2276      1
  2238  2275  2277      2
  2239  2276  2281      1
  2240  2276  2282      1
  2241  2283  2284      1
  2242  2283  2288      1
  2243  2283  2289      1
  2244  2284  2285      1
  2245  2284  2290      1
  2246  2284  2293      1
  2247  2285  2286      1
  2248  2285  2287      2
  2249  2286  2291      1
  2250  2286  2292      1
  2251  2293  2294      1
  2252  2293  2298      1
  2253  2293  2299      1
  2254  2294  2295      1
  2255  2294  2300      1
  2256  2294  2303      1
  2257  2295  2296      1
  2258  2295  2297      2
  2259  2296  2301      1
  2260  2296  2302      1
  2261  2303  2304      1
  2262  2303  2308      1
  2263  2303  2309      1
  2264  2304  2305      1
  2265  2304  2310      1
  2266  2304  2313      1
  2267  2305  2306      1
  2268  2305  2307      2
  2269  2306  2311      1
  2270  2306  2312      1
  2271  2313  2314      1
  2272  2313  2318      1
  2273  2313  2319      1
  2274  2314  2315      1
  2275  2314  2320      1
  2276  2314  2323      1
  2277  2315  2316      1
  2278  2315  2317      2
  2279  2316  2321      1
  2280  2316  2322      1
  2281  2323  2324      1
  2282  2323  2328      1
  2283  2323  2329      1
  2284  2324  2325      1
  2285  2324  2330      1
  2286  2324  2333      1
  2287  2325  2326      1
  2288  2325  2327      2
  2289  2326  2331      1
  2290  2326  2332      1
  2291  2333  2334      1
  2292  2333  2338      1
  2293  2333  2339      1
  2294  2334  2335      1
  2295  2334  2340      1
  2296  2334  2343      1
  2297  2335  2336      1
  2298  2335  2337      2
  2299  2336  2341      1
  2300  2336  2342      1
  2301  2343  2344      1
  2302  2343  2348      1
  2303  2343  2349      1
  2304  2344  2345      1
  2305  2344  2350      1
  2306  2344  2353      1
  2307  2345  2346      1
  2308  2345  2347      2
  2309  2346  2351      1
  2310  2346  2352      1
  2311  2353  2354      1
  2312  2353  2358      1
  2313  2353  2359      1
  2314  2354  2355      1
  2315  2354  2360      1
  2316  2354  2363      1
  2317  2355  2356      1
  2318  2355  2357      2
  2319  2356  2361      1
  2320  2356  2362      1
  2321  2363  2364      1
  2322  2363  2368      1
  2323  2363  2369      1
  2324  2364  2365      1
  2325  2364  2370      1
  2326  2364  2373      1
  2327  2365  2366      1
  2328  2365  2367      2
  2329  2366  2371      1
  2330  2366  2372      1
  2331  2373  2374      1
  2332  2373  2378      1
  2333  2373  2379      1
  2334  2374  2375      1
  2335  2374  2380      1
  2336  2375  2376      1
  2337  2375  2377      2
  2338  2376  2381      1
  2339  2376  2382      1
  2340  2383  2384      1
  2341  2383  2388      1
  2342  2383  2389      1
  2343  2384  2385      1
  2344  2384  2390      1
  2345  2384  2393      1
  2346  2385  2386      1
  2347  2385  2387      2
  2348  2386  2391      1
  2349  2386  2392      1
  2350  2393  2394      1
  2351  2393  2398      1
  2352  2393  2399      1
  2353  2394  2395      1
  2354  2394  2400      1
  2355  2394  2403      1
  2356  2395  2396      1
  2357  2395  2397      2
  2358  2396  2401      1
  2359  2396  2402      1
  2360  2403  2404      1
  2361  2403  2408      1
  2362  2403  2409      1
  2363  2404  2405      1
  2364  2404  2410      1
  2365  2404  2413      1
  2366  2405  2406      1
  2367  2405  2407      2
  2368  2406  2411      1
  2369  2406  2412      1
  2370  2413  2414      1
  2371  2413  2418      1
  2372  2413  2419      1
  2373  2414  2415      1
  2374  2414  2420      1
  2375  2414  2423      1
  2376  2415  2416      1
  2377  2415  2417      2
  2378  2416  2421      1
  2379  2416  2422      1
  2380  2423  2424      1
  2381  2423  2428      1
  2382  2423  2429      1
  2383  2424  2425      1
  2384  2424  2430      1
  2385  2424  2433      1
  2386  2425  2426      1
  2387  2425  2427      2
  2388  2426  2431      1
  2389  2426  2432      1
  2390  2433  2434      1
  2391  2433  2438      1
  2392  2433  2439      1
  2393  2434  2435      1
  2394  2434  2440      1
  2395  2434  2443      1
  2396  2435  2436      1
  2397  2435  2437      2
  2398  2436  2441      1
  2399  2436  2442      1
  2400  2443  2444      1
  2401  2443  2448      1
  2402  2443  2449      1
  2403  2444  2445      1
  2404  2444  2450      1
  2405  2445  2446      1
  2406  2445  2447      2
  2407  2446  2451      1
  2408  2446  2452      1
  2409  2453  2454      1
  2410  2453  2458      1
  2411  2453  2459      1
  2412  2454  2455      1
  2413  2454  2460      1
  2414  2454  2463      1
  2415  2455  2456      1
  2416  2455  2457      2
  2417  2456  2461      1
  2418  2456  2462      1
  2419  2463  2464      1
  2420  2463  2468      1
  2421  2463  2469      1
  2422  2464  2465      1
  2423  2464  2470      1
  2424  2464  2473      1
  2425  2465  2466      1
  2426  2465  2467      2
  2427  2466  2471      1
  2428  2466  2472      1
  2429  2473  2474      1
  2430  2473  2478      1
  2431  2473  2479      1
  2432  2474  2475      1
  2433  2474  2480      1
  2434  2474  2483      1
  2435  2475  2476      1
  2436  2475  2477      2
  2437  2476  2481      1
  2438  2476  2482      1
  2439  2483  2484      1
  2440  2483  2488      1
  2441  2483  2489      1
  2442  2484  2485      1
  2443  2484  2490      1
  2444  2484  2493      1
  2445  2485  2486      1
  2446  2485  2487      2
  2447  2486  2491      1
  2448  2486  2492      1
  2449  2493  2494      1
  2450  2493  2498      1
  2451  2493  2499      1
  2452  2494  2495      1
  2453  2494  2500      1
  2454  2494  2503      1
  2455  2495  2496      1
  2456  2495  2497      2
  2457  2496  2501      1
  2458  2496  2502      1
  2459  2503  2504      1
  2460  2503  2508      1
  2461  2503  2509      1
  2462  2504  2505      1
  2463  2504  2510      1
  2464  2504  2513      1
  2465  2505  2506      1
  2466  2505  2507      2
  2467  2506  2511      1
  2468  2506  2512      1
  2469  2513  2514      1
  2470  2513  2518      1
  2471  2513  2519      1
  2472  2514  2515      1
  2473  2514  2520      1
  2474  2514  2523      1
  2475  2515  2516      1
  2476  2515  2517      2
  2477  2516  2521      1
  2478  2516  2522      1
  2479  2523  2524      1
  2480  2523  2528      1
  2481  2523  2529      1
  2482  2524  2525      1
  2483  2524  2530      1
  2484  2524  2533      1
  2485  2525  2526      1
  2486  2525  2527      2
  2487  2526  2531      1
  2488  2526  2532      1
  2489  2533  2534      1
  2490  2533  2538      1
  2491  2533  2539      1
  2492  2534  2535      1
  2493  2534  2540      1
  2494  2534  2543      1
  2495  2535  2536      1
  2496  2535  2537      2
  2497  2536  2541      1
  2498  2536  2542      1
  2499  2543  2544      1
  2500  2543  2548      1
  2501  2543  2549      1
  2502  2544  2545      1
  2503  2544  2550      1
  2504  2544  2553      1
  2505  2545  2546      1
  2506  2545  2547      2
  2507  2546  2551      1
  2508  2546  2552      1
  2509  2553  2554      1
  2510  2553  2558      1
  2511  2553  2559      1
  2512  2554  2555      1
  2513  2554  2560      1
  2514  2554  2563      1
  2515  2555  2556      1
  2516  2555  2557      2
  2517  2556  2561      1
  2518  2556  2562      1
  2519  2563  2564      1
  2520  2563  2568      1
  2521  2563  2569      1
  2522  2564  2565      1
  2523  2564  2570      1
  2524  2564  2573      1
  2525  2565  2566      1
  2526  2565  2567      2
  2527  2566  2571      1
  2528  2566  2572      1
  2529  2573  2574      1
  2530  2573  2578      1
  2531  2573  2579      1
  2532  2574  2575      1
  2533  2574  2580      1
  2534  2574  2583      1
  2535  2575  2576      1
  2536  2575  2577      2
  2537  2576  2581      1
  2538  2576  2582      1
  2539  2583  2584      1
  2540  2583  2588      1
  2541  2583  2589      1
  2542  2584  2585      1
  2543  2584  2590      1
  2544  2584  2593      1
  2545  2585  2586      1
  2546  2585  2587      2
  2547  2586  2591      1
  2548  2586  2592      1
  2549  2593  2594      1
  2550  2593  2598      1
  2551  2593  2599      1
  2552  2594  2595      1
  2553  2594  2600      1
  2554  2594  2603      1
  2555  2595  2596      1
  2556  2595  2597      2
  2557  2596  2601      1
  2558  2596  2602      1
  2559  2603  2604      1
  2560  2603  2608      1
  2561  2603  2609      1
  2562  2604  2605      1
  2563  2604  2610      1
  2564  2605  2606      1
  2565  2605  2607      2
  2566  2606  2611      1
  2567  2606  2612      1
  2568  2613  2614      1
  2569  2613  2618      1
  2570  2613  2619      1
  2571  2614  2615      1
  2572  2614  2620      1
  2573  2614  2623      1
  2574  2615  2616      1
  2575  2615  2617      2
  2576  2616  2621      1
  2577  2616  2622      1
  2578  2623  2624      1
  2579  2623  2628      1
  2580  2623  2629      1
  2581  2624  2625      1
  2582  2624  2630      1
  2583  2624  2633      1
  2584  2625  2626      1
  2585  2625  2627      2
  2586  2626  2631      1
  2587  2626  2632      1
  2588  2633  2634      1
  2589  2633  2638      1
  2590  2633  2639      1
  2591  2634  2635      1
  2592  2634  2640      1
  2593  2634  2643      1
  2594  2635  2636      1
  2595  2635  2637      2
  2596  2636  2641      1
  2597  2636  2642      1
  2598  2643  2644      1
  2599  2643  2648      1
  2600  2643  2649      1
  2601  2644  2645      1
  2602  2644  2650      1
  2603  2644  2653      1
  2604  2645  2646      1
  2605  2645  2647      2
  2606  2646  2651      1
  2607  2646  2652      1
  2608  2653  2654      1
  2609  2653  2658      1
  2610  2653  2659      1
  2611  2654  2655      1
  2612  2654  2660      1
  2613  2654  2663      1
  2614  2655  2656      1
  2615  2655  2657      2
  2616  2656  2661      1
  2617  2656  2662      1
  2618  2663  2664      1
  2619  2663  2668      1
  2620  2663  2669      1
  2621  2664  2665      1
  2622  2664  2670      1
  2623  2664  2673      1
  2624  2665  2666      1
  2625  2665  2667      2
  2626  2666  2671      1
  2627  2666  2672      1
  2628  2673  2674      1
  2629  2673  2678      1
  2630  2673  2679      1
  2631  2674  2675      1
  2632  2674  2680      1
  2633  2674  2683      1
  2634  2675  2676      1
  2635  2675  2677      2
  2636  2676  2681      1
  2637  2676  2682      1
  2638  2683  2684      1
  2639  2683  2688      1
  2640  2683  2689      1
  2641  2684  2685      1
  2642  2684  2690      1
  2643  2684  2693      1
  2644  2685  2686      1
  2645  2685  2687      2
  2646  2686  2691      1
  2647  2686  2692      1
  2648  2693  2694      1
  2649  2693  2698      1
  2650  2693  2699      1
  2651  2694  2695      1
  2652  2694  2700      1
  2653  2694  2703      1
  2654  2695  2696      1
  2655  2695  2697      2
  2656  2696  2701      1
  2657  2696  2702      1
  2658  2703  2704      1
  2659  2703  2708      1
  2660  2703  2709      1
  2661  2704  2705      1
  2662  2704  2710      1
  2663  2704  2713      1
  2664  2705  2706      1
  2665  2705  2707      2
  2666  2706  2711      1
  2667  2706  2712      1
  2668  2713  2714      1
  2669  2713  2718      1
  2670  2713  2719      1
  2671  2714  2715      1
  2672  2714  2720      1
  2673  2714  2723      1
  2674  2715  2716      1
  2675  2715  2717      2
  2676  2716  2721      1
  2677  2716  2722      1
  2678  2723  2724      1
  2679  2723  2728      1
  2680  2723  2729      1
  2681  2724  2725      1
  2682  2724  2730      1
  2683  2724  2733      1
  2684  2725  2726      1
  2685  2725  2727      2
  2686  2726  2731      1
  2687  2726  2732      1
  2688  2733  2734      1
  2689  2733  2738      1
  2690  2733  2739      1
  2691  2734  2735      1
  2692  2734  2740      1
  2693  2735  2736      1
  2694  2735  2737      2
  2695  2736  2741      1
  2696  2736  2742      1
  2697  2743  2744      1
  2698  2743  2748      1
  2699  2743  2749      1
  2700  2744  2745      1
  2701  2744  2750      1
  2702  2744  2753      1
  2703  2745  2746      1
  2704  2745  2747      2
  2705  2746  2751      1
  2706  2746  2752      1
  2707  2753  2754      1
  2708  2753  2758      1
  2709  2753  2759      1
  2710  2754  2755      1
  2711  2754  2760      1
  2712  2754  2763      1
  2713  2755  2756      1
  2714  2755  2757      2
  2715  2756  2761      1
  2716  2756  2762      1
  2717  2763  2764      1
  2718  2763  2768      1
  2719  2763  2769      1
  2720  2764  2765      1
  2721  2764  2770      1
  2722  2764  2773      1
  2723  2765  2766      1
  2724  2765  2767      2
  2725  2766  2771      1
  2726  2766  2772      1
  2727  2773  2774      1
  2728  2773  2778      1
  2729  2773  2779      1
  2730  2774  2775      1
  2731  2774  2780      1
  2732  2774  2783      1
  2733  2775  2776      1
  2734  2775  2777      2
  2735  2776  2781      1
  2736  2776  2782      1
  2737  2783  2784      1
  2738  2783  2788      1
  2739  2783  2789      1
  2740  2784  2785      1
  2741  2784  2790      1
  2742  2784  2793      1
  2743  2785  2786      1
  2744  2785  2787      2
  2745  2786  2791      1
  2746  2786  2792      1
  2747  2793  2794      1
  2748  2793  2798      1
  2749  2793  2799      1
  2750  2794  2795      1
  2751  2794  2800      1
  2752  2794  2803      1
  2753  2795  2796      1
  2754  2795  2797      2
  2755  2796  2801      1
  2756  2796  2802      1
  2757  2803  2804      1
  2758  2803  2808      1
  2759  2803  2809      1
  2760  2804  2805      1
  2761  2804  2810      1
  2762  2804  2813      1
  2763  2805  2806      1
  2764  2805  2807      2
  2765  2806  2811      1
  2766  2806  2812      1
  2767  2813  2814      1
  2768  2813  2818      1
  2769  2813  2819      1
  2770  2814  2815      1
  2771  2814  2820      1
  2772  2814  2823      1
  2773  2815  2816      1
  2774  2815  2817      2
  2775  2816  2821      1
  2776  2816  2822      1
  2777  2823  2824      1
  2778  2823  2828      1
  2779  2823  2829      1
  2780  2824  2825      1
  2781  2824  2830      1
  2782  2824  2833      1
  2783  2825  2826      1
  2784  2825  2827      2
  2785  2826  2831      1
  2786  2826  2832      1
  2787  2833  2834      1
  2788  2833  2838      1
  2789  2833  2839      1
  2790  2834  2835      1
  2791  2834  2840      1
  2792  2834  2843      1
  2793  2835  2836      1
  2794  2835  2837      2
  2795  2836  2841      1
  2796  2836  2842      1
  2797  2843  2844      1
  2798  2843  2848      1
  2799  2843  2849      1
  2800  2844  2845      1
  2801  2844  2850      1
  2802  2844  2853      1
  2803  2845  2846      1
  2804  2845  2847      2
  2805  2846  2851      1
  2806  2846  2852      1
  2807  2853  2854      1
  2808  2853  2858      1
  2809  2853  2859      1
  2810  2854  2855      1
  2811  2854  2860      1
  2812  2854  2863      1
  2813  2855  2856      1
  2814  2855  2857      2
  2815  2856  2861      1
  2816  2856  2862      1
  2817  2863  2864      1
  2818  2863  2868      1
  2819  2863  2869      1
  2820  2864  2865      1
  2821  2864  2870      1
  2822  2864  2873      1
  2823  2865  2866      1
  2824  2865  2867      2
  2825  2866  2871      1
  2826  2866  2872      1
  2827  2873  2874      1
  2828  2873  2878      1
  2829  2873  2879      1
  2830  2874  2875      1
  2831  2874  2880      1
  2832  2874  2883      1
  2833  2875  2876      1
  2834  2875  2877      2
  2835  2876  2881      1
  2836  2876  2882      1
  2837  2883  2884      1
  2838  2883  2888      1
  2839  2883  2889      1
  2840  2884  2885      1
  2841  2884  2890      1
  2842  2884  2893      1
  2843  2885  2886      1
  2844  2885  2887      2
  2845  2886  2891      1
  2846  2886  2892      1
  2847  2893  2894      1
  2848  2893  2898      1
  2849  2893  2899      1
  2850  2894  2895      1
  2851  2894  2900      1
  2852  2894  2903      1
  2853  2895  2896      1
  2854  2895  2897      2
  2855  2896  2901      1
  2856  2896  2902      1
  2857  2903  2904      1
  2858  2903  2908      1
  2859  2903  2909      1
  2860  2904  2905      1
  2861  2904  2910      1
  2862  2904  2913      1
  2863  2905  2906      1
  2864  2905  2907      2
  2865  2906  2911      1
  2866  2906  2912      1
  2867  2913  2914      1
  2868  2913  2918      1
  2869  2913  2919      1
  2870  2914  2915      1
  2871  2914  2920      1
  2872  2914  2923      1
  2873  2915  2916      1
  2874  2915  2917      2
  2875  2916  2921      1
  2876  2916  2922      1
  2877  2923  2924      1
  2878  2923  2928      1
  2879  2923  2929      1
  2880  2924  2925      1
  2881  2924  2930      1
  2882  2924  2933      1
  2883  2925  2926      1
  2884  2925  2927      2
  2885  2926  2931      1
  2886  2926  2932      1
  2887  2933  2934      1
  2888  2933  2938      1
  2889  2933  2939      1
  2890  2934  2935      1
  2891  2934  2940      1
  2892  2934  2943      1
  2893  2935  2936      1
  2894  2935  2937      2
  2895  2936  2941      1
  2896  2936  2942      1
  2897  2943  2944      1
  2898  2943  2948      1
  2899  2943  2949      1
  2900  2944  2945      1
  2901  2944  2950      1
  2902  2945  2946      1
  2903  2945  2947      2
  2904  2946  2951      1
  2905  2946  2952      1
  2906  2953  2954      1
  2907  2953  2958      1
  2908  2953  2959      1
  2909  2954  2955      1
  2910  2954  2960      1
  2911  2954  2963      1
  2912  2955  2956      1
  2913  2955  2957      2
  2914  2956  2961      1
  2915  2956  2962      1
  2916  2963  2964      1
  2917  2963  2968      1
  2918  2963  2969      1
  2919  2964  2965      1
  2920  2964  2970      1
  2921  2964  2973      1
  2922  2965  2966      1
  2923  2965  2967      2
  2924  2966  2971      1
  2925  2966  2972      1
  2926  2973  2974      1
  2927  2973  2978      1
  2928  2973  2979      1
  2929  2974  2975      1
  2930  2974  2980      1
  2931  2974  2983      1
  2932  2975  2976      1
  2933  2975  2977      2
  2934  2976  2981      1
  2935  2976  2982      1
  2936  2983  2984      1
  2937  2983  2988      1
  2938  2983  2989      1
  2939  2984  2985      1
  2940  2984  2990      1
  2941  2984  2993      1
  2942  2985  2986      1
  2943  2985  2987      2
  2944  2986  2991      1
  2945  2986  2992      1
  2946  2993  2994      1
  2947  2993  2998      1
  2948  2993  2999      1
  2949  2994  2995      1
  2950  2994  3000      1
  2951  2994  3003      1
  2952  2995  2996      1
  2953  2995  2997      2
  2954  2996  3001      1
  2955  2996  3002      1
  2956  3003  3004      1
  2957  3003  3008      1
  2958  3003  3009      1
  2959  3004  3005      1
  2960  3004  3010      1
  2961  3004  3013      1
  2962  3005  3006      1
  2963  3005  3007      2
  2964  3006  3011      1
  2965  3006  3012      1
  2966  3013  3014      1
  2967  3013  3018      1
  2968  3013  3019      1
  2969  3014  3015      1
  2970  3014  3020      1
  2971  3014  3023      1
  2972  3015  3016      1
  2973  3015  3017      2
  2974  3016  3021      1
  2975  3016  3022      1
  2976  3023  3024      1
  2977  3023  3028      1
  2978  3023  3029      1
  2979  3024  3025      1
  2980  3024  3030      1
  2981  3024  3033      1
  2982  3025  3026      1
  2983  3025  3027      2
  2984  3026  3031      1
  2985  3026  3032      1
  2986  3033  3034      1
  2987  3033  3038      1
  2988  3033  3039      1
  2989  3034  3035      1
  2990  3034  3040      1
  2991  3034  3043      1
  2992  3035  3036      1
  2993  3035  3037      2
  2994  3036  3041      1
  2995  3036  3042      1
  2996  3043  3044      1
  2997  3043  3048      1
  2998  3043  3049      1
  2999  3044  3045      1
  3000  3044  3050      1
  3001  3044  3053      1
  3002  3045  3046      1
  3003  3045  3047      2
  3004  3046  3051      1
  3005  3046  3052      1
  3006  3053  3054      1
  3007  3053  3058      1
  3008  3053  3059      1
  3009  3054  3055      1
  3010  3054  3060      1
  3011  3055  3056      1
  3012  3055  3057      2
  3013  3056  3061      1
  3014  3056  3062      1
  3015  3063  3064      1
  3016  3063  3068      1
  3017  3063  3069      1
  3018  3064  3065      1
  3019  3064  3070      1
  3020  3064  3073      1
  3021  3065  3066      1
  3022  3065  3067      2
  3023  3066  3071      1
  3024  3066  3072      1
  3025  3073  3074      1
  3026  3073  3078      1
  3027  3073  3079      1
  3028  3074  3075      1
  3029  3074  3080      1
  3030  3074  3083      1
  3031  3075  3076      1
  3032  3075  3077      2
  3033  3076  3081      1
  3034  3076  3082      1
  3035  3083  3084      1
  3036  3083  3088      1
  3037  3083  3089      1
  3038  3084  3085      1
  3039  3084  3090      1
  3040  3084  3093      1
  3041  3085  3086      1
  3042  3085  3087      2
  3043  3086  3091      1
  3044  3086  3092      1
  3045  3093  3094      1
  3046  3093  3098      1
  3047  3093  3099      1
  3048  3094  3095      1
  3049  3094  3100      1
  3050  3094  3103      1
  3051  3095  3096      1
  3052  3095  3097      2
  3053  3096  3101      1
  3054  3096  3102      1
  3055  3103  3104      1
  3056  3103  3108      1
  3057  3103  3109      1
  3058  3104  3105      1
  3059  3104  3110      1
  3060  3104  3113      1
  3061  3105  3106      1
  3062  3105  3107      2
  3063  3106  3111      1
  3064  3106  3112      1
  3065  3113  3114      1
  3066  3113  3118      1
  3067  3113  3119      1
  3068  3114  3115      1
  3069  3114  3120      1
  3070  3114  3123      1
  3071  3115  3116      1
  3072  3115  3117      2
  3073  3116  3121      1
  3074  3116  3122      1
  3075  3123  3124      1
  3076  3123  3128      1
  3077  3123  3129      1
  3078  3124  3125      1
  3079  3124  3130      1
  3080  3124  3133      1
  3081  3125  3126      1
  3082  3125  3127      2
  3083  3126  3131      1
  3084  3126  3132      1
  3085  3133  3134      1
  3086  3133  3138      1
  3087  3133  3139      1
  3088  3134  3135      1
  3089  3134  3140      1
  3090  3134  3143      1
  3091  3135  3136      1
  3092  3135  3137      2
  3093  3136  3141      1
  3094  3136  3142      1
  3095  3143  3144      1
  3096  3143  3148      1
  3097  3143  3149      1
  3098  3144  3145      1
  3099  3144  3150      1
  3100  3144  3153      1
  3101  3145  3146      1
  3102  3145  3147      2
  3103  3146  3151      1
  3104  3146  3152      1
  3105  3153  3154      1
  3106  3153  3158      1
  3107  3153  3159      1
  3108  3154  3155      1
  3109  3154  3160      1
  3110  3154  3163      1
  3111  3155  3156      1
  3112  3155  3157      2
  3113  3156  3161      1
  3114  3156  3162      1
  3115  3163  3164      1
  3116  3163  3168      1
  3117  3163  3169      1
  3118  3164  3165      1
  3119  3164  3170      1
  3120  3164  3173      1
  3121  3165  3166      1
  3122  3165  3167      2
  3123  3166  3171      1
  3124  3166  3172      1
  3125  3173  3174      1
  3126  3173  3178      1
  3127  3173  3179      1
  3128  3174  3175      1
  3129  3174  3180      1
  3130  3174  3183      1
  3131  3175  3176      1
  3132  3175  3177      2
  3133  3176  3181      1
  3134  3176  3182      1
  3135  3183  3184      1
  3136  3183  3188      1
  3137  3183  3189      1
  3138  3184  3185      1
  3139  3184  3190      1
  3140  3184  3193      1
  3141  3185  3186      1
  3142  3185  3187      2
  3143  3186  3191      1
  3144  3186  3192      1
  3145  3193  3194      1
  3146  3193  3198      1
  3147  3193  3199      1
  3148  3194  3195      1
  3149  3194  3200      1
  3150  3194  3203      1
  3151  3195  3196      1
  3152  3195  3197      2
  3153  3196  3201      1
  3154  3196  3202      1
  3155  3203  3204      1
  3156  3203  3208      1
  3157  3203  3209      1
  3158  3204  3205      1
  3159  3204  3210      1
  3160  3204  3213      1
  3161  3205  3206      1
  3162  3205  3207      2
  3163  3206  3211      1
  3164  3206  3212      1
  3165  3213  3214      1
  3166  3213  3218      1
  3167  3213  3219      1
  3168  3214  3215      1
  3169  3214  3220      1
  3170  3214  3223      1
  3171  3215  3216      1
  3172  3215  3217      2
  3173  3216  3221      1
  3174  3216  3222      1
  3175  3223  3224      1
  3176  3223  3228      1
  3177  3223  3229      1
  3178  3224  3225      1
  3179  3224  3230      1
  3180  3224  3233      1
  3181  3225  3226      1
  3182  3225  3227      2
  3183  3226  3231      1
  3184  3226  3232      1
  3185  3233  3234      1
  3186  3233  3238      1
  3187  3233  3239      1
  3188  3234  3235      1
  3189  3234  3240      1
  3190  3234  3243      1
  3191  3235  3236      1
  3192  3235  3237      2
  3193  3236  3241      1
  3194  3236  3242      1
  3195  3243  3244      1
  3196  3243  3248      1
  3197  3243  3249      1
  3198  3244  3245      1
  3199  3244  3250      1
  3200  3244  3253      1
  3201  3245  3246      1
  3202  3245  3247      2
  3203  3246  3251      1
  3204  3246  3252      1
  3205  3253  3254      1
  3206  3253  3258      1
  3207  3253  3259      1
  3208  3254  3255      1
  3209  3254  3260      1
  3210  3254  3263      1
  3211  3255  3256      1
  3212  3255  3257      2
  3213  3256  3261      1
  3214  3256  3262      1
  3215  3263  3264      1
  3216  3263  3268      1
  3217  3263  3269      1
  3218  3264  3265      1
  3219  3264  3270      1
  3220  3265  3266      1
  3221  3265  3267      2
  3222  3266  3271      1
  3223  3266  3272      1
  3224  3273  3274      1
  3225  3273  3278      1
  3226  3273  3279      1
  3227  3274  3275      1
  3228  3274  3280      1
  3229  3274  3283      1
  3230  3275  3276      1
  3231  3275  3277      2
  3232  3276  3281      1
  3233  3276  3282      1
  3234  3283  3284      1
  3235  3283  3288      1
  3236  3283  3289      1
  3237  3284  3285      1
  3238  3284  3290      1
  3239  3284  3293      1
  3240  3285  3286      1
  3241  3285  3287      2
  3242  3286  3291      1
  3243  3286  3292      1
  3244  3293  3294      1
  3245  3293  3298      1
  3246  3293  3299      1
  3247  3294  3295      1
  3248  3294  3300      1
  3249  3294  3303      1
  3250  3295  3296      1
  3251  3295  3297      2
  3252  3296  3301      1
  3253  3296  3302      1
  3254  3303  3304      1
  3255  3303  3308      1
  3256  3303  3309      1
  3257  3304  3305      1
  3258  3304  3310      1
  3259  3304  3313      1
  3260  3305  3306      1
  3261  3305  3307      2
  3262  3306  3311      1
  3263  3306  3312      1
  3264  3313  3314      1
  3265  3313  3318      1
  3266  3313  3319      1
  3267  3314  3315      1
  3268  3314  3320      1
  3269  3314  3323      1
  3270  3315  3316      1
  3271  3315  3317      2
  3272  3316  3321      1
  3273  3316  3322      1
  3274  3323  3324      1
  3275  3323  3328      1
  3276  3323  3329      1
  3277  3324  3325      1
  3278  3324  3330      1
  3279  3324  3333      1
  3280  3325  3326      1
  3281  3325  3327      2
  3282  3326  3331      1
  3283  3326  3332      1
  3284  3333  3334      1
  3285  3333  3338      1
  3286  3333  3339      1
  3287  3334  3335      1
  3288  3334  3340      1
  3289  3334  3343      1
  3290  3335  3336      1
  3291  3335  3337      2
  3292  3336  3341      1
  3293  3336  3342      1
  3294  3343  3344      1
  3295  3343  3348      1
  3296  3343  3349      1
  3297  3344  3345      1
  3298  3344  3350      1
  3299  3344  3353      1
  3300  3345  3346      1
  3301  3345  3347      2
  3302  3346  3351      1
  3303  3346  3352      1
  3304  3353  3354      1
  3305  3353  3358      1
  3306  3353  3359      1
  3307  3354  3355      1
  3308  3354  3360      1
  3309  3355  3356      1
  3310  3355  3357      2
  3311  3356  3361      1
  3312  3356  3362      1
  3313  3363  3364      1
  3314  3363  3368      1
  3315  3363  3369      1
  3316  3364  3365      1
  3317  3364  3370      1
  3318  3364  3373      1
  3319  3365  3366      1
  3320  3365  3367      2
  3321  3366  3371      1
  3322  3366  3372      1
  3323  3373  3374      1
  3324  3373  3378      1
  3325  3373  3379      1
  3326  3374  3375      1
  3327  3374  3380      1
  3328  3374  3383      1
  3329  3375  3376      1
  3330  3375  3377      2
  3331  3376  3381      1
  3332  3376  3382      1
  3333  3383  3384      1
  3334  3383  3388      1
  3335  3383  3389      1
  3336  3384  3385      1
  3337  3384  3390      1
  3338  3384  3393      1
  3339  3385  3386      1
  3340  3385  3387      2
  3341  3386  3391      1
  3342  3386  3392      1
  3343  3393  3394      1
  3344  3393  3398      1
  3345  3393  3399      1
  3346  3394  3395      1
  3347  3394  3400      1
  3348  3394  3403      1
  3349  3395  3396      1
  3350  3395  3397      2
  3351  3396  3401      1
  3352  3396  3402      1
  3353  3403  3404      1
  3354  3403  3408      1
  3355  3403  3409      1
  3356  3404  3405      1
  3357  3404  3410      1
  3358  3404  3413      1
  3359  3405  3406      1
  3360  3405  3407      2
  3361  3406  3411      1
  3362  3406  3412      1
  3363  3413  3414      1
  3364  3413  3418      1
  3365  3413  3419      1
  3366  3414  3415      1
  3367  3414  3420      1
  3368  3414  3423      1
  3369  3415  3416      1
  3370  3415  3417      2
  3371  3416  3421      1
  3372  3416  3422      1
  3373  3423  3424      1
  3374  3423  3428      1
  3375  3423  3429      1
  3376  3424  3425      1
  3377  3424  3430      1
  3378  3424  3433      1
  3379  3425  3426      1
  3380  3425  3427      2
  3381  3426  3431      1
  3382  3426  3432      1
  3383  3433  3434      1
  3384  3433  3438      1
  3385  3433  3439      1
  3386  3434  3435      1
  3387  3434  3440      1
  3388  3434  3443      1
  3389  3435  3436      1
  3390  3435  3437      2
  3391  3436  3441      1
  3392  3436  3442      1
  3393  3443  3444      1
  3394  3443  3448      1
  3395  3443  3449      1
  3396  3444  3445      1
  3397  3444  3450      1
  3398  3444  3453      1
  3399  3445  3446      1
  3400  3445  3447      2
  3401  3446  3451      1
  3402  3446  3452      1
  3403  3453  3454      1
  3404  3453  3458      1
  3405  3453  3459      1
  3406  3454  3455      1
  3407  3454  3460      1
  3408  3454  3463      1
  3409  3455  3456      1
  3410  3455  3457      2
  3411  3456  3461      1
  3412  3456  3462      1
  3413  3463  3464      1
  3414  3463  3468      1
  3415  3463  3469      1
  3416  3464  3465      1
  3417  3464  3470      1
  3418  3464  3473      1
  3419  3465  3466      1
  3420  3465  3467      2
  3421  3466  3471      1
  3422  3466  3472      1
  3423  3473  3474      1
  3424  3473  3478      1
  3425  3473  3479      1
  3426  3474  3475      1
  3427  3474  3480      1
  3428  3474  3483      1
  3429  3475  3476      1
  3430  3475  3477      2
  3431  3476  3481      1
  3432  3476  3482      1
  3433  3483  3484      1
  3434  3483  3488      1
  3435  3483  3489      1
  3436  3484  3485      1
  3437  3484  3490      1
  3438  3485  3486      1
  3439  3485  3487      2
  3440  3486  3491      1
  3441  3486  3492      1
  3442  3493  3494      1
  3443  3493  3498      1
  3444  3493  3499      1
  3445  3494  3495      1
  3446  3494  3500      1
  3447  3494  3503      1
  3448  3495  3496      1
  3449  3495  3497      2
  3450  3496  3501      1
  3451  3496  3502      1
  3452  3503  3504      1
  3453  3503  3508      1
  3454  3503  3509      1
  3455  3504  3505      1
  3456  3504  3510      1
  3457  3504  3513      1
  3458  3505  3506      1
  3459  3505  3507      2
  3460  3506  3511      1
  3461  3506  3512      1
  3462  3513  3514      1
  3463  3513  3518      1
  3464  3513  3519      1
  3465  3514  3515      1
  3466  3514  3520      1
  3467  3514  3523      1
  3468  3515  3516      1
  3469  3515  3517      2
  3470  3516  3521      1
  3471  3516  3522      1
  3472  3523  3524      1
  3473  3523  3528      1
  3474  3523  3529      1
  3475  3524  3525      1
  3476  3524  3530      1
  3477  3524  3533      1
  3478  3525  3526      1
  3479  3525  3527      2
  3480  3526  3531      1
  3481  3526  3532      1
  3482  3533  3534      1
  3483  3533  3538      1
  3484  3533  3539      1
  3485  3534  3535      1
  3486  3534  3540      1
  3487  3534  3543      1
  3488  3535  3536      1
  3489  3535  3537      2
  3490  3536  3541      1
  3491  3536  3542      1
  3492  3543  3544      1
  3493  3543  3548      1
  3494  3543  3549      1
  3495  3544  3545      1
  3496  3544  3550      1
  3497  3544  3553      1
  3498  3545  3546      1
  3499  3545  3547      2
  3500  3546  3551      1
  3501  3546  3552      1
  3502  3553  3554      1
  3503  3553  3558      1
  3504  3553  3559      1
  3505  3554  3555      1
  3506  3554  3560      1
  3507  3554  3563      1
  3508  3555  3556      1
  3509  3555  3557      2
  3510  3556  3561      1
  3511  3556  3562      1
  3512  3563  3564      1
  3513  3563  3568      1
  3514  3563  3569      1
  3515  3564  3565      1
  3516  3564  3570      1
  3517  3564  3573      1
  3518  3565  3566      1
  3519  3565  3567      2
  3520  3566  3571      1
  3521  3566  3572      1
  3522  3573  3574      1
  3523  3573  3578      1
  3524  3573  3579      1
  3525  3574  3575      1
  3526  3574  3580      1
  3527  3574  3583      1
  3528  3575  3576      1
  3529  3575  3577      2
  3530  3576  3581      1
  3531  3576  3582      1
  3532  3583  3584      1
  3533  3583  3588      1
  3534  3583  3589      1
  3535  3584  3585      1
  3536  3584  3590      1
  3537  3584  3593      1
  3538  3585  3586      1
  3539  3585  3587      2
  3540  3586  3591      1
  3541  3586  3592      1
  3542  3593  3594      1
  3543  3593  3598      1
  3544  3593  3599      1
  3545  3594  3595      1
  3546  3594  3600      1
  3547  3594  3603      1
  3548  3595  3596      1
  3549  3595  3597      2
  3550  3596  3601      1
  3551  3596  3602      1
  3552  3603  3604      1
  3553  3603  3608      1
  3554  3603  3609      1
  3555  3604  3605      1
  3556  3604  3610      1
  3557  3604  3613      1
  3558  3605  3606      1
  3559  3605  3607      2
  3560  3606  3611      1
  3561  3606  3612      1
  3562  3613  3614      1
  3563  3613  3618      1
  3564  3613  3619      1
  3565  3614  3615      1
  3566  3614  3620      1
  3567  3614  3623      1
  3568  3615  3616      1
  3569  3615  3617      2
  3570  3616  3621      1
  3571  3616  3622      1
  3572  3623  3624      1
  3573  3623  3628      1
  3574  3623  3629      1
  3575  3624  3625      1
  3576  3624  3630      1
  3577  3624  3633      1
  3578  3625  3626      1
  3579  3625  3627      2
  3580  3626  3631      1
  3581  3626  3632      1
  3582  3633  3634      1
  3583  3633  3638      1
  3584  3633  3639      1
  3585  3634  3635      1
  3586  3634  3640      1
  3587  3634  3643      1
  3588  3635  3636      1
  3589  3635  3637      2
  3590  3636  3641      1
  3591  3636  3642      1
  3592  3643  3644      1
  3593  3643  3648      1
  3594  3643  3649      1
  3595  3644  3645      1
  3596  3644  3650      1
  3597  3644  3653      1
  3598  3645  3646      1
  3599  3645  3647      2
  3600  3646  3651      1
  3601  3646  3652      1
  3602  3653  3654      1
  3603  3653  3658      1
  3604  3653  3659      1
  3605  3654  3655      1
  3606  3654  3660      1
  3607  3654  3663      1
  3608  3655  3656      1
  3609  3655  3657      2
  3610  3656  3661      1
  3611  3656  3662      1
  3612  3663  3664      1
  3613  3663  3668      1
  3614  3663  3669      1
  3615  3664  3665      1
  3616  3664  3670      1
  3617  3664  3673      1
  3618  3665  3666      1
  3619  3665  3667      2
  3620  3666  3671      1
  3621  3666  3672      1
  3622  3673  3674      1
  3623  3673  3678      1
  3624  3673  3679      1
  3625  3674  3675      1
  3626  3674  3680      1
  3627  3674  3683      1
  3628  3675  3676      1
  3629  3675  3677      2
  3630  3676  3681      1
  3631  3676  3682      1
  3632  3683  3684      1
  3633  3683  3688      1
  3634  3683  3689      1
  3635  3684  3685      1
  3636  3684  3690      1
  3637  3684  3693      1
  3638  3685  3686      1
  3639  3685  3687      2
  3640  3686  3691      1
  3641  3686  3692      1
  3642  3693  3694      1
  3643  3693  3698      1
  3644  3693  3699      1
  3645  3694  3695      1
  3646  3694  3700      1
  3647  3694  3703      1
  3648  3695  3696      1
  3649  3695  3697      2
  3650  3696  3701      1
  3651  3696  3702      1
  3652  3703  3704      1
  3653  3703  3708      1
  3654  3703  3709      1
  3655  3704  3705      1
  3656  3704  3710      1
  3657  3704  3713      1
  3658  3705  3706      1
  3659  3705  3707      2
  3660  3706  3711      1
  3661  3706  3712      1
  3662  3713  3714      1
  3663  3713  3718      1
  3664  3713  3719      1
  3665  3714  3715      1
  3666  3714  3720      1
  3667  3714  3723      1
  3668  3715  3716      1
  3669  3715  3717      2
  3670  3716  3721      1
  3671  3716  3722      1
  3672  3723  3724      1
  3673  3723  3728      1
  3674  3723  3729      1
  3675  3724  3725      1
  3676  3724  3730      1
  3677  3724  3733      1
  3678  3725  3726      1
  3679  3725  3727      2
  3680  3726  3731      1
  3681  3726  3732      1
  3682  3733  3734      1
  3683  3733  3738      1
  3684  3733  3739      1
  3685  3734  3735      1
  3686  3734  3740      1
  3687  3735  3736      1
  3688  3735  3737      2
  3689  3736  3741      1
  3690  3736  3742      1
  3691  3743  3744      1
  3692  3743  3748      1
  3693  3743  3749      1
  3694  3744  3745      1
  3695  3744  3750      1
  3696  3744  3753      1
  3697  3745  3746      1
  3698  3745  3747      2
  3699  3746  3751      1
  3700  3746  3752      1
  3701  3753  3754      1
  3702  3753  3758      1
  3703  3753  3759      1
  3704  3754  3755      1
  3705  3754  3760      1
  3706  3754  3763      1
  3707  3755  3756      1
  3708  3755  3757      2
  3709  3756  3761      1
  3710  3756  3762      1
  3711  3763  3764      1
  3712  3763  3768      1
  3713  3763  3769      1
  3714  3764  3765      1
  3715  3764  3770      1
  3716  3764  3773      1
  3717  3765  3766      1
  3718  3765  3767      2
  3719  3766  3771      1
  3720  3766  3772      1
  3721  3773  3774      1
  3722  3773  3778      1
  3723  3773  3779      1
  3724  3774  3775      1
  3725  3774  3780      1
  3726  3774  3783      1
  3727  3775  3776      1
  3728  3775  3777      2
  3729  3776  3781      1
  3730  3776  3782      1
  3731  3783  3784      1
  3732  3783  3788      1
  3733  3783  3789      1
  3734  3784  3785      1
  3735  3784  3790      1
  3736  3784  3793      1
  3737  3785  3786      1
  3738  3785  3787      2
  3739  3786  3791      1
  3740  3786  3792      1
  3741  3793  3794      1
  3742  3793  3798      1
  3743  3793  3799      1
  3744  3794  3795      1
  3745  3794  3800      1
  3746  3794  3803      1
  3747  3795  3796      1
  3748  3795  3797      2
  3749  3796  3801      1
  3750  3796  3802      1
  3751  3803  3804      1
  3752  3803  3808      1
  3753  3803  3809      1
  3754  3804  3805      1
  3755  3804  3810      1
  3756  3804  3813      1
  3757  3805  3806      1
  3758  3805  3807      2
  3759  3806  3811      1
  3760  3806  3812      1
  3761  3813  3814      1
  3762  3813  3818      1
  3763  3813  3819      1
  3764  3814  3815      1
  3765  3814  3820      1
  3766  3814  3823      1
  3767  3815  3816      1
  3768  3815  3817      2
  3769  3816  3821      1
  3770  3816  3822      1
  3771  3823  3824      1
  3772  3823  3828      1
  3773  3823  3829      1
  3774  3824  3825      1
  3775  3824  3830      1
  3776  3824  3833      1
  3777  3825  3826      1
  3778  3825  3827      2
  3779  3826  3831      1
  3780  3826  3832      1
  3781  3833  3834      1
  3782  3833  3838      1
  3783  3833  3839      1
  3784  3834  3835      1
  3785  3834  3840      1
  3786  3834  3843      1
  3787  3835  3836      1
  3788  3835  3837      2
  3789  3836  3841      1
  3790  3836  3842      1
  3791  3843  3844      1
  3792  3843  3848      1
  3793  3843  3849      1
  3794  3844  3845      1
  3795  3844  3850      1
  3796  3844  3853      1
  3797  3845  3846      1
  3798  3845  3847      2
  3799  3846  3851      1
  3800  3846  3852      1
  3801  3853  3854      1
  3802  3853  3858      1
  3803  3853  3859      1
  3804  3854  3855      1
  3805  3854  3860      1
  3806  3854  3863      1
  3807  3855  3856      1
  3808  3855  3857      2
  3809  3856  3861      1
  3810  3856  3862      1
  3811  3863  3864      1
  3812  3863  3868      1
  3813  3863  3869      1
  3814  3864  3865      1
  3815  3864  3870      1
  3816  3864  3873      1
  3817  3865  3866      1
  3818  3865  3867      2
  3819  3866  3871      1
  3820  3866  3872      1
  3821  3873  3874      1
  3822  3873  3878      1
  3823  3873  3879      1
  3824  3874  3875      1
  3825  3874  3880      1
  3826  3874  3883      1
  3827  3875  3876      1
  3828  3875  3877      2
  3829  3876  3881      1
  3830  3876  3882      1
  3831  3883  3884      1
  3832  3883  3888      1
  3833  3883  3889      1
  3834  3884  3885      1
  3835  3884  3890      1
  3836  3884  3893      1
  3837  3885  3886      1
  3838  3885  3887      2
  3839  3886  3891      1
  3840  3886  3892      1
  3841  3893  3894      1
  3842  3893  3898      1
  3843  3893  3899      1
  3844  3894  3895      1
  3845  3894  3900      1
  3846  3894  3903      1
  3847  3895  3896      1
  3848  3895  3897      2
  3849  3896  3901      1
  3850  3896  3902      1
  3851  3903  3904      1
  3852  3903  3908      1
  3853  3903  3909      1
  3854  3904  3905      1
  3855  3904  3910      1
  3856  3905  3906      1
  3857  3905  3907      2
  3858  3906  3911      1
  3859  3906  3912      1
  3860  3913  3914      1
  3861  3913  3918      1
  3862  3913  3919      1
  3863  3914  3915      1
  3864  3914  3920      1
  3865  3914  3923      1
  3866  3915  3916      1
  3867  3915  3917      2
  3868  3916  3921      1
  3869  3916  3922      1
  3870  3923  3924      1
  3871  3923  3928      1
  3872  3923  3929      1
  3873  3924  3925      1
  3874  3924  3930      1
  3875  3924  3933      1
  3876  3925  3926      1
  3877  3925  3927      2
  3878  3926  3931      1
  3879  3926  3932      1
  3880  3933  3934      1
  3881  3933  3938      1
  3882  3933  3939      1
  3883  3934  3935      1
  3884  3934  3940      1
  3885  3934  3943      1
  3886  3935  3936      1
  3887  3935  3937      2
  3888  3936  3941      1
  3889  3936  3942      1
  3890  3943  3944      1
  3891  3943  3948      1
  3892  3943  3949      1
  3893  3944  3945      1
  3894  3944  3950      1
  3895  3944  3953      1
  3896  3945  3946      1
  3897  3945  3947      2
  3898  3946  3951      1
  3899  3946  3952      1
  3900  3953  3954      1
  3901  3953  3958      1
  3902  3953  3959      1
  3903  3954  3955      1
  3904  3954  3960      1
  3905  3954  3963      1
  3906  3955  3956      1
  3907  3955  3957      2
  3908  3956  3961      1
  3909  3956  3962      1
  3910  3963  3964      1
  3911  3963  3968      1
  3912  3963  3969      1
  3913  3964  3965      1
  3914  3964  3970      1
  3915  3964  3973      1
  3916  3965  3966      1
  3917  3965  3967      2
  3918  3966  3971      1
  3919  3966  3972      1
  3920  3973  3974      1
  3921  3973  3978      1
  3922  3973  3979      1
  3923  3974  3975      1
  3924  3974  3980      1
  3925  3974  3983      1
  3926  3975  3976      1
  3927  3975  3977      2
  3928  3976  3981      1
  3929  3976  3982      1
  3930  3983  3984      1
  3931  3983  3988      1
  3932  3983  3989      1
  3933  3984  3985      1
  3934  3984  3990      1
  3935  3984  3993      1
  3936  3985  3986      1
  3937  3985  3987      2
  3938  3986  3991      1
  3939  3986  3992      1
  3940  3993  3994      1
  3941  3993  3998      1
  3942  3993  3999      1
  3943  3994  3995      1
  3944  3994  4000      1
  3945  3995  3996      1
  3946  3995  3997      2
  3947  3996  4001      1
  3948  3996  4002      1
  3949  4003  4004      1
  3950  4003  4008      1
  3951  4003  4009      1
  3952  4004  4005      1
  3953  4004  4010      1
  3954  4004  4013      1
  3955  4005  4006      1
  3956  4005  4007      2
  3957  4006  4011      1
  3958  4006  4012      1
  3959  4013  4014      1
  3960  4013  4018      1
  3961  4013  4019      1
  3962  4014  4015      1
  3963  4014  4020      1
  3964  4014  4023      1
  3965  4015  4016      1
  3966  4015  4017      2
  3967  4016  4021      1
  3968  4016  4022      1
  3969  4023  4024      1
  3970  4023  4028      1
  3971  4023  4029      1
  3972  4024  4025      1
  3973  4024  4030      1
  3974  4024  4033      1
  3975  4025  4026      1
  3976  4025  4027      2
  3977  4026  4031      1
  3978  4026  4032      1
  3979  4033  4034      1
  3980  4033  4038      1
  3981  4033  4039      1
  3982  4034  4035      1
  3983  4034  4040      1
  3984  4034  4043      1
  3985  4035  4036      1
  3986  4035  4037      2
  3987  4036  4041      1
  3988  4036  4042      1
  3989  4043  4044      1
  3990  4043  4048      1
  3991  4043  4049      1
  3992  4044  4045      1
  3993  4044  4050      1
  3994  4044  4053      1
  3995  4045  4046      1
  3996  4045  4047      2
  3997  4046  4051      1
  3998  4046  4052      1
  3999  4053  4054      1
  4000  4053  4058      1
  4001  4053  4059      1
  4002  4054  4055      1
  4003  4054  4060      1
  4004  4054  4063      1
  4005  4055  4056      1
  4006  4055  4057      2
  4007  4056  4061      1
  4008  4056  4062      1
  4009  4063  4064      1
  4010  4063  4068      1
  4011  4063  4069      1
  4012  4064  4065      1
  4013  4064  4070      1
  4014  4065  4066      1
  4015  4065  4067      2
  4016  4066  4071      1
  4017  4066  4072      1
  4018  4073  4074      1
  4019  4073  4078      1
  4020  4073  4079      1
  4021  4074  4075      1
  4022  4074  4080      1
  4023  4074  4083      1
  4024  4075  4076      1
  4025  4075  4077      2
  4026  4076  4081      1
  4027  4076  4082      1
  4028  4083  4084      1
  4029  4083  4088      1
  4030  4083  4089      1
  4031  4084  4085      1
  4032  4084  4090      1
  4033  4084  4093      1
  4034  4085  4086      1
  4035  4085  4087      2
  4036  4086  4091      1
  4037  4086  4092      1
  4038  4093  4094      1
  4039  4093  4098      1
  4040  4093  4099      1
  4041  4094  4095      1
  4042  4094  4100      1
  4043  4094  4103      1
  4044  4095  4096      1
  4045  4095  4097      2
  4046  4096  4101      1
  4047  4096  4102      1
  4048  4103  4104      1
  4049  4103  4108      1
  4050  4103  4109      1
  4051  4104  4105      1
  4052  4104  4110      1
  4053  4104  4113      1
  4054  4105  4106      1
  4055  4105  4107      2
  4056  4106  4111      1
  4057  4106  4112      1
  4058  4113  4114      1
  4059  4113  4118      1
  4060  4113  4119      1
  4061  4114  4115      1
  4062  4114  4120      1
  4063  4114  4123      1
  4064  4115  4116      1
  4065  4115  4117      2
  4066  4116  4121      1
  4067  4116  4122      1
  4068  4123  4124      1
  4069  4123  4128      1
  4070  4123  4129      1
  4071  4124  4125      1
  4072  4124  4130      1
  4073  4124  4133      1
  4074  4125  4126      1
  4075  4125  4127      2
  4076  4126  4131      1
  4077  4126  4132      1
  4078  4133  4134      1
  4079  4133  4138      1
  4080  4133  4139      1
  4081  4134  4135      1
  4082  4134  4140      1
  4083  4134  4143      1
  4084  4135  4136      1
  4085  4135  4137      2
  4086  4136  4141      1
  4087  4136  4142      1
  4088  4143  4144      1
  4089  4143  4148      1
  4090  4143  4149      1
  4091  4144  4145      1
  4092  4144  4150      1
  4093  4145  4146      1
  4094  4145  4147      2
  4095  4146  4151      1
  4096  4146  4152      1
  4097  4153  4154      1
  4098  4153  4158      1
  4099  4153  4159      1
  4100  4154  4155      1
  4101  4154  4160      1
  4102  4154  4163      1
  4103  4155  4156      1
  4104  4155  4157      2
  4105  4156  4161      1
  4106  4156  4162      1
  4107  4163  4164      1
  4108  4163  4168      1
  4109  4163  4169      1
  4110  4164  4165      1
  4111  4164  4170      1
  4112  4164  4173      1
  4113  4165  4166      1
  4114  4165  4167      2
  4115  4166  4171      1
  4116  4166  4172      1
  4117  4173  4174      1
  4118  4173  4178      1
  4119  4173  4179      1
  4120  4174  4175      1
  4121  4174  4180      1
  4122  4174  4183      1
  4123  4175  4176      1
  4124  4175  4177      2
  4125  4176  4181      1
  4126  4176  4182      1
  4127  4183  4184      1
  4128  4183  4188      1
  4129  4183  4189      1
  4130  4184  4185      1
  4131  4184  4190      1
  4132  4184  4193      1
  4133  4185  4186      1
  4134  4185  4187      2
  4135  4186  4191      1
  4136  4186  4192      1
  4137  4193  4194      1
  4138  4193  4198      1
  4139  4193  4199      1
  4140  4194  4195      1
  4141  4194  4200      1
  4142  4194  4203      1
  4143  4195  4196      1
  4144  4195  4197      2
  4145  4196  4201      1
  4146  4196  4202      1
  4147  4203  4204      1
  4148  4203  4208      1
  4149  4203  4209      1
  4150  4204  4205      1
  4151  4204  4210      1
  4152  4204  4213      1
  4153  4205  4206      1
  4154  4205  4207      2
  4155  4206  4211      1
  4156  4206  4212      1
  4157  4213  4214      1
  4158  4213  4218      1
  4159  4213  4219      1
  4160  4214  4215      1
  4161  4214  4220      1
  4162  4214  4223      1
  4163  4215  4216      1
  4164  4215  4217      2
  4165  4216  4221      1
  4166  4216  4222      1
  4167  4223  4224      1
  4168  4223  4228      1
  4169  4223  4229      1
  4170  4224  4225      1
  4171  4224  4230      1
  4172  4224  4233      1
  4173  4225  4226      1
  4174  4225  4227      2
  4175  4226  4231      1
  4176  4226  4232      1
  4177  4233  4234      1
  4178  4233  4238      1
  4179  4233  4239      1
  4180  4234  4235      1
  4181  4234  4240      1
  4182  4234  4243      1
  4183  4235  4236      1
  4184  4235  4237      2
  4185  4236  4241      1
  4186  4236  4242      1
  4187  4243  4244      1
  4188  4243  4248      1
  4189  4243  4249      1
  4190  4244  4245      1
  4191  4244  4250      1
  4192  4244  4253      1
  4193  4245  4246      1
  4194  4245  4247      2
  4195  4246  4251      1
  4196  4246  4252      1
  4197  4253  4254      1
  4198  4253  4258      1
  4199  4253  4259      1
  4200  4254  4255      1
  4201  4254  4260      1
  4202  4254  4263      1
  4203  4255  4256      1
  4204  4255  4257      2
  4205  4256  4261      1
  4206  4256  4262      1
  4207  4263  4264      1
  4208  4263  4268      1
  4209  4263  4269      1
  4210  4264  4265      1
  4211  4264  4270      1
  4212  4264  4273      1
  4213  4265  4266      1
  4214  4265  4267      2
  4215  4266  4271      1
  4216  4266  4272      1
  4217  4273  4274      1
  4218  4273  4278      1
  4219  4273  4279      1
  4220  4274  4275      1
  4221  4274  4280      1
  4222  4275  4276      1
  4223  4275  4277      2
  4224  4276  4281      1
  4225  4276  4282      1
  4226  4283  4284      1
  4227  4283  4288      1
  4228  4283  4289      1
  4229  4284  4285      1
  4230  4284  4290      1
  4231  4284  4293      1
  4232  4285  4286      1
  4233  4285  4287      2
  4234  4286  4291      1
  4235  4286  4292      1
  4236  4293  4294      1
  4237  4293  4298      1
  4238  4293  4299      1
  4239  4294  4295      1
  4240  4294  4300      1
  4241  4294  4303      1
  4242  4295  4296      1
  4243  4295  4297      2
  4244  4296  4301      1
  4245  4296  4302      1
  4246  4303  4304      1
  4247  4303  4308      1
  4248  4303  4309      1
  4249  4304  4305      1
  4250  4304  4310      1
  4251  4304  4313      1
  4252  4305  4306      1
  4253  4305  4307      2
  4254  4306  4311      1
  4255  4306  4312      1
  4256  4313  4314      1
  4257  4313  4318      1
  4258  4313  4319      1
  4259  4314  4315      1
  4260  4314  4320      1
  4261  4314  4323      1
  4262  4315  4316      1
  4263  4315  4317      2
  4264  4316  4321      1
  4265  4316  4322      1
  4266  4323  4324      1
  4267  4323  4328      1
  4268  4323  4329      1
  4269  4324  4325      1
  4270  4324  4330      1
  4271  4324  4333      1
  4272  4325  4326      1
  4273  4325  4327      2
  4274  4326  4331      1
  4275  4326  4332      1
  4276  4333  4334      1
  4277  4333  4338      1
  4278  4333  4339      1
  4279  4334  4335      1
  4280  4334  4340      1
  4281  4334  4343      1
  4282  4335  4336      1
  4283  4335  4337      2
  4284  4336  4341      1
  4285  4336  4342      1
  4286  4343  4344      1
  4287  4343  4348      1
  4288  4343  4349      1
  4289  4344  4345      1
  4290  4344  4350      1
  4291  4344  4353      1
  4292  4345  4346      1
  4293  4345  4347      2
  4294  4346  4351      1
  4295  4346  4352      1
  4296  4353  4354      1
  4297  4353  4358      1
  4298  4353  4359      1
  4299  4354  4355      1
  4300  4354  4360      1
  4301  4354  4363      1
  4302  4355  4356      1
  4303  4355  4357      2
  4304  4356  4361      1
  4305  4356  4362      1
  4306  4363  4364      1
  4307  4363  4368      1
  4308  4363  4369      1
  4309  4364  4365      1
  4310  4364  4370      1
  4311  4364  4373      1
  4312  4365  4366      1
  4313  4365  4367      2
  4314  4366  4371      1
  4315  4366  4372      1
  4316  4373  4374      1
  4317  4373  4378      1
  4318  4373  4379      1
  4319  4374  4375      1
  4320  4374  4380      1
  4321  4374  4383      1
  4322  4375  4376      1
  4323  4375  4377      2
  4324  4376  4381      1
  4325  4376  4382      1
  4326  4383  4384      1
  4327  4383  4388      1
  4328  4383  4389      1
  4329  4384  4385      1
  4330  4384  4390      1
  4331  4384  4393      1
  4332  4385  4386      1
  4333  4385  4387      2
  4334  4386  4391      1
  4335  4386  4392      1
  4336  4393  4394      1
  4337  4393  4398      1
  4338  4393  4399      1
  4339  4394  4395      1
  4340  4394  4400      1
  4341  4394  4403      1
  4342  4395  4396      1
  4343  4395  4397      2
  4344  4396  4401      1
  4345  4396  4402      1
  4346  4403  4404      1
  4347  4403  4408      1
  4348  4403  4409      1
  4349  4404  4405      1
  4350  4404  4410      1
  4351  4404  4413      1
  4352  4405  4406      1
  4353  4405  4407      2
  4354  4406  4411      1
  4355  4406  4412      1
  4356  4413  4414      1
  4357  4413  4418      1
  4358  4413  4419      1
  4359  4414  4415      1
  4360  4414  4420      1
  4361  4415  4416      1
  4362  4415  4417      2
  4363  4416  4421      1
  4364  4416  4422      1
  4365  4423  4424      1
  4366  4423  4428      1
  4367  4423  4429      1
  4368  4424  4425      1
  4369  4424  4430      1
  4370  4424  4433      1
  4371  4425  4426      1
  4372  4425  4427      2
  4373  4426  4431      1
  4374  4426  4432      1
  4375  4433  4434      1
  4376  4433  4438      1
  4377  4433  4439      1
  4378  4434  4435      1
  4379  4434  4440      1
  4380  4434  4443      1
  4381  4435  4436      1
  4382  4435  4437      2
  4383  4436  4441      1
  4384  4436  4442      1
  4385  4443  4444      1
  4386  4443  4448      1
  4387  4443  4449      1
  4388  4444  4445      1
  4389  4444  4450      1
  4390  4444  4453      1
  4391  4445  4446      1
  4392  4445  4447      2
  4393  4446  4451      1
  4394  4446  4452      1
  4395  4453  4454      1
  4396  4453  4458      1
  4397  4453  4459      1
  4398  4454  4455      1
  4399  4454  4460      1
  4400  4454  4463      1
  4401  4455  4456      1
  4402  4455  4457      2
  4403  4456  4461      1
  4404  4456  4462      1
  4405  4463  4464      1
  4406  4463  4468      1
  4407  4463  4469      1
  4408  4464  4465      1
  4409  4464  4470      1
  4410  4464  4473      1
  4411  4465  4466      1
  4412  4465  4467      2
  4413  4466  4471      1
  4414  4466  4472      1
  4415  4473  4474      1
  4416  4473  4478      1
  4417  4473  4479      1
  4418  4474  4475      1
  4419  4474  4480      1
  4420  4474  4483      1
  4421  4475  4476      1
  4422  4475  4477      2
  4423  4476  4481      1
  4424  4476  4482      1
  4425  4483  4484      1
  4426  4483  4488      1
  4427  4483  4489      1
  4428  4484  4485      1
  4429  4484  4490      1
  4430  4484  4493      1
  4431  4485  4486      1
  4432  4485  4487      2
  4433  4486  4491      1
  4434  4486  4492      1
  4435  4493  4494      1
  4436  4493  4498      1
  4437  4493  4499      1
  4438  4494  4495      1
  4439  4494  4500      1
  4440  4494  4503      1
  4441  4495  4496      1
  4442  4495  4497      2
  4443  4496  4501      1
  4444  4496  4502      1
  4445  4503  4504      1
  4446  4503  4508      1
  4447  4503  4509      1
  4448  4504  4505      1
  4449  4504  4510      1
  4450  4504  4513      1
  4451  4505  4506      1
  4452  4505  4507      2
  4453  4506  4511      1
  4454  4506  4512      1
  4455  4513  4514      1
  4456  4513  4518      1
  4457  4513  4519      1
  4458  4514  4515      1
  4459  4514  4520      1
  4460  4514  4523      1
  4461  4515  4516      1
  4462  4515  4517      2
  4463  4516  4521      1
  4464  4516  4522      1
  4465  4523  4524      1
  4466  4523  4528      1
  4467  4523  4529      1
  4468  4524  4525      1
  4469  4524  4530      1
  4470  4525  4526      1
  4471  4525  4527      2
  4472  4526  4531      1
  4473  4526  4532      1
  4474  4533  4534      1
  4475  4533  4538      1
  4476  4533  4539      1
  4477  4534  4535      1
  4478  4534  4540      1
  4479  4534  4543      1
  4480  4535  4536      1
  4481  4535  4537      2
  4482  4536  4541      1
  4483  4536  4542      1
  4484  4543  4544      1
  4485  4543  4548      1
  4486  4543  4549      1
  4487  4544  4545      1
  4488  4544  4550      1
  4489  4544  4553      1
  4490  4545  4546      1
  4491  4545  4547      2
  4492  4546  4551      1
  4493  4546  4552      1
  4494  4553  4554      1
  4495  4553  4558      1
  4496  4553  4559      1
  4497  4554  4555      1
  4498  4554  4560      1
  4499  4554  4563      1
  4500  4555  4556      1
  4501  4555  4557      2
  4502  4556  4561      1
  4503  4556  4562      1
  4504  4563  4564      1
  4505  4563  4568      1
  4506  4563  4569      1
  4507  4564  4565      1
  4508  4564  4570      1
  4509  4564  4573      1
  4510  4565  4566      1
  4511  4565  4567      2
  4512  4566  4571      1
  4513  4566  4572      1
  4514  4573  4574      1
  4515  4573  4578      1
  4516  4573  4579      1
  4517  4574  4575      1
  4518  4574  4580      1
  4519  4574  4583      1
  4520  4575  4576      1
  4521  4575  4577      2
  4522  4576  4581      1
  4523  4576  4582      1
  4524  4583  4584      1
  4525  4583  4588      1
  4526  4583  4589      1
  4527  4584  4585      1
  4528  4584  4590      1
  4529  4584  4593      1
  4530  4585  4586      1
  4531  4585  4587      2
  4532  4586  4591      1
  4533  4586  4592      1
  4534  4593  4594      1
  4535  4593  4598      1
  4536  4593  4599      1
  4537  4594  4595      1
  4538  4594  4600      1
  4539  4594  4603      1
  4540  4595  4596      1
  4541  4595  4597      2
  4542  4596  4601      1
  4543  4596  4602      1
  4544  4603  4604      1
  4545  4603  4608      1
  4546  4603  4609      1
  4547  4604  4605      1
  4548  4604  4610      1
  4549  4604  4613      1
  4550  4605  4606      1
  4551  4605  4607      2
  4552  4606  4611      1
  4553  4606  4612      1
  4554  4613  4614      1
  4555  4613  4618      1
  4556  4613  4619      1
  4557  4614  4615      1
  4558  4614  4620      1
  4559  4614  4623      1
  4560  4615  4616      1
  4561  4615  4617      2
  4562  4616  4621      1
  4563  4616  4622      1
  4564  4623  4624      1
  4565  4623  4628      1
  4566  4623  4629      1
  4567  4624  4625      1
  4568  4624  4630      1
  4569  4624  4633      1
  4570  4625  4626      1
  4571  4625  4627      2
  4572  4626  4631      1
  4573  4626  4632      1
  4574  4633  4634      1
  4575  4633  4638      1
  4576  4633  4639      1
  4577  4634  4635      1
  4578  4634  4640      1
  4579  4634  4643      1
  4580  4635  4636      1
  4581  4635  4637      2
  4582  4636  4641      1
  4583  4636  4642      1
  4584  4643  4644      1
  4585  4643  4648      1
  4586  4643  4649      1
  4587  4644  4645      1
  4588  4644  4650      1
  4589  4644  4653      1
  4590  4645  4646      1
  4591  4645  4647      2
  4592  4646  4651      1
  4593  4646  4652      1
  4594  4653  4654      1
  4595  4653  4658      1
  4596  4653  4659      1
  4597  4654  4655      1
  4598  4654  4660      1
  4599  4654  4663      1
  4600  4655  4656      1
  4601  4655  4657      2
  4602  4656  4661      1
  4603  4656  4662      1
  4604  4663  4664      1
  4605  4663  4668      1
  4606  4663  4669      1
  4607  4664  4665      1
  4608  4664  4670      1
  4609  4665  4666      1
  4610  4665  4667      2
  4611  4666  4671      1
  4612  4666  4672      1
  4613  4673  4674      1
  4614  4673  4678      1
  4615  4673  4679      1
  4616  4674  4675      1
  4617  4674  4680      1
  4618  4674  4683      1
  4619  4675  4676      1
  4620  4675  4677      2
  4621  4676  4681      1
  4622  4676  4682      1
  4623  4683  4684      1
  4624  4683  4688      1
  4625  4683  4689      1
  4626  4684  4685      1
  4627  4684  4690      1
  4628  4684  4693      1
  4629  4685  4686      1
  4630  4685  4687      2
  4631  4686  4691      1
  4632  4686  4692      1
  4633  4693  4694      1
  4634  4693  4698      1
  4635  4693  4699      1
  4636  4694  4695      1
  4637  4694  4700      1
  4638  4694  4703      1
  4639  4695  4696      1
  4640  4695  4697      2
  4641  4696  4701      1
  4642  4696  4702      1
  4643  4703  4704      1
  4644  4703  4708      1
  4645  4703  4709      1
  4646  4704  4705      1
  4647  4704  4710      1
  4648  4704  4713      1
  4649  4705  4706      1
  4650  4705  4707      2
  4651  4706  4711      1
  4652  4706  4712      1
  4653  4713  4714      1
  4654  4713  4718      1
  4655  4713  4719      1
  4656  4714  4715      1
  4657  4714  4720      1
  4658  4714  4723      1
  4659  4715  4716      1
  4660  4715  4717      2
  4661  4716  4721      1
  4662  4716  4722      1
  4663  4723  4724      1
  4664  4723  4728      1
  4665  4723  4729      1
  4666  4724  4725      1
  4667  4724  4730      1
  4668  4724  4733      1
  4669  4725  4726      1
  4670  4725  4727      2
  4671  4726  4731      1
  4672  4726  4732      1
  4673  4733  4734      1
  4674  4733  4738      1
  4675  4733  4739      1
  4676  4734  4735      1
  4677  4734  4740      1
  4678  4734  4743      1
  4679  4735  4736      1
  4680  4735  4737      2
  4681  4736  4741      1
  4682  4736  4742      1
  4683  4743  4744      1
  4684  4743  4748      1
  4685  4743  4749      1
  4686  4744  4745      1
  4687  4744  4750      1
  4688  4744  4753      1
  4689  4745  4746      1
  4690  4745  4747      2
  4691  4746  4751      1
  4692  4746  4752      1
  4693  4753  4754      1
  4694  4753  4758      1
  4695  4753  4759      1
  4696  4754  4755      1
  4697  4754  4760      1
  4698  4754  4763      1
  4699  4755  4756      1
  4700  4755  4757      2
  4701  4756  4761      1
  4702  4756  4762      1
  4703  4763  4764      1
  4704  4763  4768      1
  4705  4763  4769      1
  4706  4764  4765      1
  4707  4764  4770      1
  4708  4764  4773      1
  4709  4765  4766      1
  4710  4765  4767      2
  4711  4766  4771      1
  4712  4766  4772      1
  4713  4773  4774      1
  4714  4773  4778      1
  4715  4773  4779      1
  4716  4774  4775      1
  4717  4774  4780      1
  4718  4774  4783      1
  4719  4775  4776      1
  4720  4775  4777      2
  4721  4776  4781      1
  4722  4776  4782      1
  4723  4783  4784      1
  4724  4783  4788      1
  4725  4783  4789      1
  4726  4784  4785      1
  4727  4784  4790      1
  4728  4784  4793      1
  4729  4785  4786      1
  4730  4785  4787      2
  4731  4786  4791      1
  4732  4786  4792      1
  4733  4793  4794      1
  4734  4793  4798      1
  4735  4793  4799      1
  4736  4794  4795      1
  4737  4794  4800      1
  4738  4794  4803      1
  4739  4795  4796      1
  4740  4795  4797      2
  4741  4796  4801      1
  4742  4796  4802      1
  4743  4803  4804      1
  4744  4803  4808      1
  4745  4803  4809      1
  4746  4804  4805      1
  4747  4804  4810      1
  4748  4804  4813      1
  4749  4805  4806      1
  4750  4805  4807      2
  4751  4806  4811      1
  4752  4806  4812      1
  4753  4813  4814      1
  4754  4813  4818      1
  4755  4813  4819      1
  4756  4814  4815      1
  4757  4814  4820      1
  4758  4815  4816      1
  4759  4815  4817      2
  4760  4816  4821      1
  4761  4816  4822      1
  4762  4823  4824      1
  4763  4823  4828      1
  4764  4823  4829      1
  4765  4824  4825      1
  4766  4824  4830      1
  4767  4824  4833      1
  4768  4825  4826      1
  4769  4825  4827      2
  4770  4826  4831      1
  4771  4826  4832      1
  4772  4833  4834      1
  4773  4833  4838      1
  4774  4833  4839      1
  4775  4834  4835      1
  4776  4834  4840      1
  4777  4834  4843      1
  4778  4835  4836      1
  4779  4835  4837      2
  4780  4836  4841      1
  4781  4836  4842      1
  4782  4843  4844      1
  4783  4843  4848      1
  4784  4843  4849      1
  4785  4844  4845      1
  4786  4844  4850      1
  4787  4844  4853      1
  4788  4845  4846      1
  4789  4845  4847      2
  4790  4846  4851      1
  4791  4846  4852      1
  4792  4853  4854      1
  4793  4853  4858      1
  4794  4853  4859      1
  4795  4854  4855      1
  4796  4854  4860      1
  4797  4854  4863      1
  4798  4855  4856      1
  4799  4855  4857      2
  4800  4856  4861      1
  4801  4856  4862      1
  4802  4863  4864      1
  4803  4863  4868      1
  4804  4863  4869      1
  4805  4864  4865      1
  4806  4864  4870      1
  4807  4864  4873      1
  4808  4865  4866      1
  4809  4865  4867      2
  4810  4866  4871      1
  4811  4866  4872      1
  4812  4873  4874      1
  4813  4873  4878      1
  4814  4873  4879      1
  4815  4874  4875      1
  4816  4874  4880      1
  4817  4874  4883      1
  4818  4875  4876      1
  4819  4875  4877      2
  4820  4876  4881      1
  4821  4876  4882      1
  4822  4883  4884      1
  4823  4883  4888      1
  4824  4883  4889      1
  4825  4884  4885      1
  4826  4884  4890      1
  4827  4884  4893      1
  4828  4885  4886      1
  4829  4885  4887      2
  4830  4886  4891      1
  4831  4886  4892      1
  4832  4893  4894      1
  4833  4893  4898      1
  4834  4893  4899      1
  4835  4894  4895      1
  4836  4894  4900      1
  4837  4894  4903      1
  4838  4895  4896      1
  4839  4895  4897      2
  4840  4896  4901      1
  4841  4896  4902      1
  4842  4903  4904      1
  4843  4903  4908      1
  4844  4903  4909      1
  4845  4904  4905      1
  4846  4904  4910      1
  4847  4905  4906      1
  4848  4905  4907      2
  4849  4906  4911      1
  4850  4906  4912      1
  4851  4913  4914      1
  4852  4913  4918      1
  4853  4913  4919      1
  4854  4914  4915      1
  4855  4914  4920      1
  4856  4914  4923      1
  4857  4915  4916      1
  4858  4915  4917      2
  4859  4916  4921      1
  4860  4916  4922      1
  4861  4923  4924      1
  4862  4923  4928      1
  4863  4923  4929      1
  4864  4924  4925      1
  4865  4924  4930      1
  4866  4924  4933      1
  4867  4925  4926      1
  4868  4925  4927      2
  4869  4926  4931      1
  4870  4926  4932      1
  4871  4933  4934      1
  4872  4933  4938      1
  4873  4933  4939      1
  4874  4934  4935      1
  4875  4934  4940      1
  4876  4934  4943      1
  4877  4935  4936      1
  4878  4935  4937      2
  4879  4936  4941      1
  4880  4936  4942      1
  4881  4943  4944      1
  4882  4943  4948      1
  4883  4943  4949      1
  4884  4944  4945      1
  4885  4944  4950      1
  4886  4944  4953      1
  4887  4945  4946      1
  4888  4945  4947      2
  4889  4946  4951      1
  4890  4946  4952      1
  4891  4953  4954      1
  4892  4953  4958      1
  4893  4953  4959      1
  4894  4954  4955      1
  4895  4954  4960      1
  4896  4954  4963      1
  4897  4955  4956      1
  4898  4955  4957      2
  4899  4956  4961      1
  4900  4956  4962      1
  4901  4963  4964      1
  4902  4963  4968      1
  4903  4963  4969      1
  4904  4964  4965      1
  4905  4964  4970      1
  4906  4964  4973      1
  4907  4965  4966      1
  4908  4965  4967      2
  4909  4966  4971      1
  4910  4966  4972      1
  4911  4973  4974      1
  4912  4973  4978      1
  4913  4973  4979      1
  4914  4974  4975      1
  4915  4974  4980      1
  4916  4974  4983      1
  4917  4975  4976      1
  4918  4975  4977      2
  4919  4976  4981      1
  4920  4976  4982      1
  4921  4983  4984      1
  4922  4983  4988      1
  4923  4983  4989      1
  4924  4984  4985      1
  4925  4984  4990      1
  4926  4984  4993      1
  4927  4985  4986      1
  4928  4985  4987      2
  4929  4986  4991      1
  4930  4986  4992      1
  4931  4993  4994      1
  4932  4993  4998      1
  4933  4993  4999      1
  4934  4994  4995      1
  4935  4994  5000      1
  4936  4994  5003      1
  4937  4995  4996      1
  4938  4995  4997      2
  4939  4996  5001      1
  4940  4996  5002      1
  4941  5003  5004      1
  4942  5003  5008      1
  4943  5003  5009      1
  4944  5004  5005      1
  4945  5004  5010      1
  4946  5004  5013      1
  4947  5005  5006      1
  4948  5005  5007      2
  4949  5006  5011      1
  4950  5006  5012      1
  4951  5013  5014      1
  4952  5013  5018      1
  4953  5013  5019      1
  4954  5014  5015      1
  4955  5014  5020      1
  4956  5014  5023      1
  4957  5015  5016      1
  4958  5015  5017      2
  4959  5016  5021      1
  4960  5016  5022      1
  4961  5023  5024      1
  4962  5023  5028      1
  4963  5023  5029      1
  4964  5024  5025      1
  4965  5024  5030      1
  4966  5024  5033      1
  4967  5025  5026      1
  4968  5025  5027      2
  4969  5026  5031      1
  4970  5026  5032      1
  4971  5033  5034      1
  4972  5033  5038      1
  4973  5033  5039      1
  4974  5034  5035      1
  4975  5034  5040      1
  4976  5034  5043      1
  4977  5035  5036      1
  4978  5035  5037      2
  4979  5036  5041      1
  4980  5036  5042      1
  4981  5043  5044      1
  4982  5043  5048      1
  4983  5043  5049      1
  4984  5044  5045      1
  4985  5044  5050      1
  4986  5044  5053      1
  4987  5045  5046      1
  4988  5045  5047      2
  4989  5046  5051      1
  4990  5046  5052      1
  4991  5053  5054      1
  4992  5053  5058      1
  4993  5053  5059      1
  4994  5054  5055      1
  4995  5054  5060      1
  4996  5054  5063      1
  4997  5055  5056      1
  4998  5055  5057      2
  4999  5056  5061      1
  5000  5056  5062      1
  5001  5063  5064      1
  5002  5063  5068      1
  5003  5063  5069      1
  5004  5064  5065      1
  5005  5064  5070      1
  5006  5065  5066      1
  5007  5065  5067      2
  5008  5066  5071      1
  5009  5066  5072      1
  5010  5073  5074      1
  5011  5073  5078      1
  5012  5073  5079      1
  5013  5074  5075      1
  5014  5074  5080      1
  5015  5074  5083      1
  5016  5075  5076      1
  5017  5075  5077      2
  5018  5076  5081      1
  5019  5076  5082      1
  5020  5083  5084      1
  5021  5083  5088      1
  5022  5083  5089      1
  5023  5084  5085      1
  5024  5084  5090      1
  5025  5084  5093      1
  5026  5085  5086      1
  5027  5085  5087      2
  5028  5086  5091      1
  5029  5086  5092      1
  5030  5093  5094      1
  5031  5093  5098      1
  5032  5093  5099      1
  5033  5094  5095      1
  5034  5094  5100      1
  5035  5094  5103      1
  5036  5095  5096      1
  5037  5095  5097      2
  5038  5096  5101      1
  5039  5096  5102      1
  5040  5103  5104      1
  5041  5103  5108      1
  5042  5103  5109      1
  5043  5104  5105      1
  5044  5104  5110      1
  5045  5104  5113      1
  5046  5105  5106      1
  5047  5105  5107      2
  5048  5106  5111      1
  5049  5106  5112      1
  5050  5113  5114      1
  5051  5113  5118      1
  5052  5113  5119      1
  5053  5114  5115      1
  5054  5114  5120      1
  5055  5114  5123      1
  5056  5115  5116      1
  5057  5115  5117      2
  5058  5116  5121      1
  5059  5116  5122      1
  5060  5123  5124      1
  5061  5123  5128      1
  5062  5123  5129      1
  5063  5124  5125      1
  5064  5124  5130      1
  5065  5124  5133      1
  5066  5125  5126      1
  5067  5125  5127      2
  5068  5126  5131      1
  5069  5126  5132      1
  5070  5133  5134      1
  5071  5133  5138      1
  5072  5133  5139      1
  5073  5134  5135      1
  5074  5134  5140      1
  5075  5134  5143      1
  5076  5135  5136      1
  5077  5135  5137      2
  5078  5136  5141      1
  5079  5136  5142      1
  5080  5143  5144      1
  5081  5143  5148      1
  5082  5143  5149      1
  5083  5144  5145      1
  5084  5144  5150      1
  5085  5144  5153      1
  5086  5145  5146      1
  5087  5145  5147      2
  5088  5146  5151      1
  5089  5146  5152      1
  5090  5153  5154      1
  5091  5153  5158      1
  5092  5153  5159      1
  5093  5154  5155      1
  5094  5154  5160      1
  5095  5154  5163      1
  5096  5155  5156      1
  5097  5155  5157      2
  5098  5156  5161      1
  5099  5156  5162      1
  5100  5163  5164      1
  5101  5163  5168      1
  5102  5163  5169      1
  5103  5164  5165      1
  5104  5164  5170      1
  5105  5164  5173      1
  5106  5165  5166      1
  5107  5165  5167      2
  5108  5166  5171      1
  5109  5166  5172      1
  5110  5173  5174      1
  5111  5173  5178      1
  5112  5173  5179      1
  5113  5174  5175      1
  5114  5174  5180      1
  5115  5175  5176      1
  5116  5175  5177      2
  5117  5176  5181      1
  5118  5176  5182      1
  5119  5183  5184      1
  5120  5183  5188      1
  5121  5183  5189      1
  5122  5184  5185      1
  5123  5184  5190      1
  5124  5184  5193      1
  5125  5185  5186      1
  5126  5185  5187      2
  5127  5186  5191      1
  5128  5186  5192      1
  5129  5193  5194      1
  5130  5193  5198      1
  5131  5193  5199      1
  5132  5194  5195      1
  5133  5194  5200      1
  5134  5194  5203      1
  5135  5195  5196      1
  5136  5195  5197      2
  5137  5196  5201      1
  5138  5196  5202      1
  5139  5203  5204      1
  5140  5203  5208      1
  5141  5203  5209      1
  5142  5204  5205      1
  5143  5204  5210      1
  5144  5204  5213      1
  5145  5205  5206      1
  5146  5205  5207      2
  5147  5206  5211      1
  5148  5206  5212      1
  5149  5213  5214      1
  5150  5213  5218      1
  5151  5213  5219      1
  5152  5214  5215      1
  5153  5214  5220      1
  5154  5214  5223      1
  5155  5215  5216      1
  5156  5215  5217      2
  5157  5216  5221      1
  5158  5216  5222      1
  5159  5223  5224      1
  5160  5223  5228      1
  5161  5223  5229      1
  5162  5224  5225      1
  5163  5224  5230      1
  5164  5224  5233      1
  5165  5225  5226      1
  5166  5225  5227      2
  5167  5226  5231      1
  5168  5226  5232      1
  5169  5233  5234      1
  5170  5233  5238      1
  5171  5233  5239      1
  5172  5234  5235      1
  5173  5234  5240      1
  5174  5234  5243      1
  5175  5235  5236      1
  5176  5235  5237      2
  5177  5236  5241      1
  5178  5236  5242      1
  5179  5243  5244      1
  5180  5243  5248      1
  5181  5243  5249      1
  5182  5244  5245      1
  5183  5244  5250      1
  5184  5244  5253      1
  5185  5245  5246      1
  5186  5245  5247      2
  5187  5246  5251      1
  5188  5246  5252      1
  5189  5253  5254      1
  5190  5253  5258      1
  5191  5253  5259      1
  5192  5254  5255      1
  5193  5254  5260      1
  5194  5254  5263      1
  5195  5255  5256      1
  5196  5255  5257      2
  5197  5256  5261      1
  5198  5256  5262      1
  5199  5263  5264      1
  5200  5263  5268      1
  5201  5263  5269      1
  5202  5264  5265      1
  5203  5264  5270      1
  5204  5264  5273      1
  5205  5265  5266      1
  5206  5265  5267      2
  5207  5266  5271      1
  5208  5266  5272      1
  5209  5273  5274      1
  5210  5273  5278      1
  5211  5273  5279      1
  5212  5274  5275      1
  5213  5274  5280      1
  5214  5274  5283      1
  5215  5275  5276      1
  5216  5275  5277      2
  5217  5276  5281      1
  5218  5276  5282      1
  5219  5283  5284      1
  5220  5283  5288      1
  5221  5283  5289      1
  5222  5284  5285      1
  5223  5284  5290      1
  5224  5284  5293      1
  5225  5285  5286      1
  5226  5285  5287      2
  5227  5286  5291      1
  5228  5286  5292      1
  5229  5293  5294      1
  5230  5293  5298      1
  5231  5293  5299      1
  5232  5294  5295      1
  5233  5294  5300      1
  5234  5294  5303      1
  5235  5295  5296      1
  5236  5295  5297      2
  5237  5296  5301      1
  5238  5296  5302      1
  5239  5303  5304      1
  5240  5303  5308      1
  5241  5303  5309      1
  5242  5304  5305      1
  5243  5304  5310      1
  5244  5304  5313      1
  5245  5305  5306      1
  5246  5305  5307      2
  5247  5306  5311      1
  5248  5306  5312      1
  5249  5313  5314      1
  5250  5313  5318      1
  5251  5313  5319      1
  5252  5314  5315      1
  5253  5314  5320      1
  5254  5314  5323      1
  5255  5315  5316      1
  5256  5315  5317      2
  5257  5316  5321      1
  5258  5316  5322      1
  5259  5323  5324      1
  5260  5323  5328      1
  5261  5323  5329      1
  5262  5324  5325      1
  5263  5324  5330      1
  5264  5324  5333      1
  5265  5325  5326      1
  5266  5325  5327      2
  5267  5326  5331      1
  5268  5326  5332      1
  5269  5333  5334      1
  5270  5333  5338      1
  5271  5333  5339      1
  5272  5334  5335      1
  5273  5334  5340      1
  5274  5334  5343      1
  5275  5335  5336      1
  5276  5335  5337      2
  5277  5336  5341      1
  5278  5336  5342      1
  5279  5343  5344      1
  5280  5343  5348      1
  5281  5343  5349      1
  5282  5344  5345      1
  5283  5344  5350      1
  5284  5345  5346      1
  5285  5345  5347      2
  5286  5346  5351      1
  5287  5346  5352      1
  5288  5353  5354      1
  5289  5353  5358      1
  5290  5353  5359      1
  5291  5354  5355      1
  5292  5354  5360      1
  5293  5354  5363      1
  5294  5355  5356      1
  5295  5355  5357      2
  5296  5356  5361      1
  5297  5356  5362      1
  5298  5363  5364      1
  5299  5363  5368      1
  5300  5363  5369      1
  5301  5364  5365      1
  5302  5364  5370      1
  5303  5364  5373      1
  5304  5365  5366      1
  5305  5365  5367      2
  5306  5366  5371      1
  5307  5366  5372      1
  5308  5373  5374      1
  5309  5373  5378      1
  5310  5373  5379      1
  5311  5374  5375      1
  5312  5374  5380      1
  5313  5374  5383      1
  5314  5375  5376      1
  5315  5375  5377      2
  5316  5376  5381      1
  5317  5376  5382      1
  5318  5383  5384      1
  5319  5383  5388      1
  5320  5383  5389      1
  5321  5384  5385      1
  5322  5384  5390      1
  5323  5384  5393      1
  5324  5385  5386      1
  5325  5385  5387      2
  5326  5386  5391      1
  5327  5386  5392      1
  5328  5393  5394      1
  5329  5393  5398      1
  5330  5393  5399      1
  5331  5394  5395      1
  5332  5394  5400      1
  5333  5394  5403      1
  5334  5395  5396      1
  5335  5395  5397      2
  5336  5396  5401      1
  5337  5396  5402      1
  5338  5403  5404      1
  5339  5403  5408      1
  5340  5403  5409      1
  5341  5404  5405      1
  5342  5404  5410      1
  5343  5404  5413      1
  5344  5405  5406      1
  5345  5405  5407      2
  5346  5406  5411      1
  5347  5406  5412      1
  5348  5413  5414      1
  5349  5413  5418      1
  5350  5413  5419      1
  5351  5414  5415      1
  5352  5414  5420      1
  5353  5414  5423      1
  5354  5415  5416      1
  5355  5415  5417      2
  5356  5416  5421      1
  5357  5416  5422      1
  5358  5423  5424      1
  5359  5423  5428      1
  5360  5423  5429      1
  5361  5424  5425      1
  5362  5424  5430      1
  5363  5424  5433      1
  5364  5425  5426      1
  5365  5425  5427      2
  5366  5426  5431      1
  5367  5426  5432      1
  5368  5433  5434      1
  5369  5433  5438      1
  5370  5433  5439      1
  5371  5434  5435      1
  5372  5434  5440      1
  5373  5434  5443      1
  5374  5435  5436      1
  5375  5435  5437      2
  5376  5436  5441      1
  5377  5436  5442      1
  5378  5443  5444      1
  5379  5443  5448      1
  5380  5443  5449      1
  5381  5444  5445      1
  5382  5444  5450      1
  5383  5444  5453      1
  5384  5445  5446      1
  5385  5445  5447      2
  5386  5446  5451      1
  5387  5446  5452      1
  5388  5453  5454      1
  5389  5453  5458      1
  5390  5453  5459      1
  5391  5454  5455      1
  5392  5454  5460      1
  5393  5454  5463      1
  5394  5455  5456      1
  5395  5455  5457      2
  5396  5456  5461      1
  5397  5456  5462      1
  5398  5463  5464      1
  5399  5463  5468      1
  5400  5463  5469      1
  5401  5464  5465      1
  5402  5464  5470      1
  5403  5464  5473      1
  5404  5465  5466      1
  5405  5465  5467      2
  5406  5466  5471      1
  5407  5466  5472      1
  5408  5473  5474      1
  5409  5473  5478      1
  5410  5473  5479      1
  5411  5474  5475      1
  5412  5474  5480      1
  5413  5474  5483      1
  5414  5475  5476      1
  5415  5475  5477      2
  5416  5476  5481      1
  5417  5476  5482      1
  5418  5483  5484      1
  5419  5483  5488      1
  5420  5483  5489      1
  5421  5484  5485      1
  5422  5484  5490      1
  5423  5485  5486      1
  5424  5485  5487      2
  5425  5486  5491      1
  5426  5486  5492      1
  5427  5493  5494      1
  5428  5493  5498      1
  5429  5493  5499      1
  5430  5494  5495      1
  5431  5494  5500      1
  5432  5494  5503      1
  5433  5495  5496      1
  5434  5495  5497      2
  5435  5496  5501      1
  5436  5496  5502      1
  5437  5503  5504      1
  5438  5503  5508      1
  5439  5503  5509      1
  5440  5504  5505      1
  5441  5504  5510      1
  5442  5504  5513      1
  5443  5505  5506      1
  5444  5505  5507      2
  5445  5506  5511      1
  5446  5506  5512      1
  5447  5513  5514      1
  5448  5513  5518      1
  5449  5513  5519      1
  5450  5514  5515      1
  5451  5514  5520      1
  5452  5514  5523      1
  5453  5515  5516      1
  5454  5515  5517      2
  5455  5516  5521      1
  5456  5516  5522      1
  5457  5523  5524      1
  5458  5523  5528      1
  5459  5523  5529      1
  5460  5524  5525      1
  5461  5524  5530      1
  5462  5524  5533      1
  5463  5525  5526      1
  5464  5525  5527      2
  5465  5526  5531      1
  5466  5526  5532      1
  5467  5533  5534      1
  5468  5533  5538      1
  5469  5533  5539      1
  5470  5534  5535      1
  5471  5534  5540      1
  5472  5534  5543      1
  5473  5535  5536      1
  5474  5535  5537      2
  5475  5536  5541      1
  5476  5536  5542      1
  5477  5543  5544      1
  5478  5543  5548      1
  5479  5543  5549      1
  5480  5544  5545      1
  5481  5544  5550      1
  5482  5544  5553      1
  5483  5545  5546      1
  5484  5545  5547      2
  5485  5546  5551      1
  5486  5546  5552      1
  5487  5553  5554      1
  5488  5553  5558      1
  5489  5553  5559      1
  5490  5554  5555      1
  5491  5554  5560      1
  5492  5554  5563      1
  5493  5555  5556      1
  5494  5555  5557      2
  5495  5556  5561      1
  5496  5556  5562      1
  5497  5563  5564      1
  5498  5563  5568      1
  5499  5563  5569      1
  5500  5564  5565      1
  5501  5564  5570      1
  5502  5564  5573      1
  5503  5565  5566      1
  5504  5565  5567      2
  5505  5566  5571      1
  5506  5566  5572      1
  5507  5573  5574      1
  5508  5573  5578      1
  5509  5573  5579      1
  5510  5574  5575      1
  5511  5574  5580      1
  5512  5574  5583      1
  5513  5575  5576      1
  5514  5575  5577      2
  5515  5576  5581      1
  5516  5576  5582      1
  5517  5583  5584      1
  5518  5583  5588      1
  5519  5583  5589      1
  5520  5584  5585      1
  5521  5584  5590      1
  5522  5585  5586      1
  5523  5585  5587      2
  5524  5586  5591      1
  5525  5586  5592      1
  5526  5593  5594      1
  5527  5593  5598      1
  5528  5593  5599      1
  5529  5594  5595      1
  5530  5594  5600      1
  5531  5594  5603      1
  5532  5595  5596      1
  5533  5595  5597      2
  5534  5596  5601      1
  5535  5596  5602      1
  5536  5603  5604      1
  5537  5603  5608      1
  5538  5603  5609      1
  5539  5604  5605      1
  5540  5604  5610      1
  5541  5604  5613      1
  5542  5605  5606      1
  5543  5605  5607      2
  5544  5606  5611      1
  5545  5606  5612      1
  5546  5613  5614      1
  5547  5613  5618      1
  5548  5613  5619      1
  5549  5614  5615      1
  5550  5614  5620      1
  5551  5614  5623      1
  5552  5615  5616      1
  5553  5615  5617      2
  5554  5616  5621      1
  5555  5616  5622      1
  5556  5623  5624      1
  5557  5623  5628      1
  5558  5623  5629      1
  5559  5624  5625      1
  5560  5624  5630      1
  5561  5624  5633      1
  5562  5625  5626      1
  5563  5625  5627      2
  5564  5626  5631      1
  5565  5626  5632      1
  5566  5633  5634      1
  5567  5633  5638      1
  5568  5633  5639      1
  5569  5634  5635      1
  5570  5634  5640      1
  5571  5634  5643      1
  5572  5635  5636      1
  5573  5635  5637      2
  5574  5636  5641      1
  5575  5636  5642      1
  5576  5643  5644      1
  5577  5643  5648      1
  5578  5643  5649      1
  5579  5644  5645      1
  5580  5644  5650      1
  5581  5644  5653      1
  5582  5645  5646      1
  5583  5645  5647      2
  5584  5646  5651      1
  5585  5646  5652      1
  5586  5653  5654      1
  5587  5653  5658      1
  5588  5653  5659      1
  5589  5654  5655      1
  5590  5654  5660      1
  5591  5654  5663      1
  5592  5655  5656      1
  5593  5655  5657      2
  5594  5656  5661      1
  5595  5656  5662      1
  5596  5663  5664      1
  5597  5663  5668      1
  5598  5663  5669      1
  5599  5664  5665      1
  5600  5664  5670      1
  5601  5664  5673      1
  5602  5665  5666      1
  5603  5665  5667      2
  5604  5666  5671      1
  5605  5666  5672      1
  5606  5673  5674      1
  5607  5673  5678      1
  5608  5673  5679      1
  5609  5674  5675      1
  5610  5674  5680      1
  5611  5674  5683      1
  5612  5675  5676      1
  5613  5675  5677      2
  5614  5676  5681      1
  5615  5676  5682      1
  5616  5683  5684      1
  5617  5683  5688      1
  5618  5683  5689      1
  5619  5684  5685      1
  5620  5684  5690      1
  5621  5685  5686      1
  5622  5685  5687      2
  5623  5686  5691      1
  5624  5686  5692      1
  5625  5693  5694      1
  5626  5693  5698      1
  5627  5693  5699      1
  5628  5694  5695      1
  5629  5694  5700      1
  5630  5694  5703      1
  5631  5695  5696      1
  5632  5695  5697      2
  5633  5696  5701      1
  5634  5696  5702      1
  5635  5703  5704      1
  5636  5703  5708      1
  5637  5703  5709      1
  5638  5704  5705      1
  5639  5704  5710      1
  5640  5704  5713      1
  5641  5705  5706      1
  5642  5705  5707      2
  5643  5706  5711      1
  5644  5706  5712      1
  5645  5713  5714      1
  5646  5713  5718      1
  5647  5713  5719      1
  5648  5714  5715      1
  5649  5714  5720      1
  5650  5714  5723      1
  5651  5715  5716      1
  5652  5715  5717      2
  5653  5716  5721      1
  5654  5716  5722      1
  5655  5723  5724      1
  5656  5723  5728      1
  5657  5723  5729      1
  5658  5724  5725      1
  5659  5724  5730      1
  5660  5724  5733      1
  5661  5725  5726      1
  5662  5725  5727      2
  5663  5726  5731      1
  5664  5726  5732      1
  5665  5733  5734      1
  5666  5733  5738      1
  5667  5733  5739      1
  5668  5734  5735      1
  5669  5734  5740      1
  5670  5734  5743      1
  5671  5735  5736      1
  5672  5735  5737      2
  5673  5736  5741      1
  5674  5736  5742      1
  5675  5743  5744      1
  5676  5743  5748      1
  5677  5743  5749      1
  5678  5744  5745      1
  5679  5744  5750      1
  5680  5744  5753      1
  5681  5745  5746      1
  5682  5745  5747      2
  5683  5746  5751      1
  5684  5746  5752      1
  5685  5753  5754      1
  5686  5753  5758      1
  5687  5753  5759      1
  5688  5754  5755      1
  5689  5754  5760      1
  5690  5754  5763      1
  5691  5755  5756      1
  5692  5755  5757      2
  5693  5756  5761      1
  5694  5756  5762      1
  5695  5763  5764      1
  5696  5763  5768      1
  5697  5763  5769      1
  5698  5764  5765      1
  5699  5764  5770      1
  5700  5764  5773      1
  5701  5765  5766      1
  5702  5765  5767      2
  5703  5766  5771      1
  5704  5766  5772      1
  5705  5773  5774      1
  5706  5773  5778      1
  5707  5773  5779      1
  5708  5774  5775      1
  5709  5774  5780      1
  5710  5774  5783      1
  5711  5775  5776      1
  5712  5775  5777      2
  5713  5776  5781      1
  5714  5776  5782      1
  5715  5783  5784      1
  5716  5783  5788      1
  5717  5783  5789      1
  5718  5784  5785      1
  5719  5784  5790      1
  5720  5784  5793      1
  5721  5785  5786      1
  5722  5785  5787      2
  5723  5786  5791      1
  5724  5786  5792      1
  5725  5793  5794      1
  5726  5793  5798      1
  5727  5793  5799      1
  5728  5794  5795      1
  5729  5794  5800      1
  5730  5794  5803      1
  5731  5795  5796      1
  5732  5795  5797      2
  5733  5796  5801      1
  5734  5796  5802      1
  5735  5803  5804      1
  5736  5803  5808      1
  5737  5803  5809      1
  5738  5804  5805      1
  5739  5804  5810      1
  5740  5804  5813      1
  5741  5805  5806      1
  5742  5805  5807      2
  5743  5806  5811      1
  5744  5806  5812      1
  5745  5813  5814      1
  5746  5813  5818      1
  5747  5813  5819      1
  5748  5814  5815      1
  5749  5814  5820      1
  5750  5814  5823      1
  5751  5815  5816      1
  5752  5815  5817      2
  5753  5816  5821      1
  5754  5816  5822      1
  5755  5823  5824      1
  5756  5823  5828      1
  5757  5823  5829      1
  5758  5824  5825      1
  5759  5824  5830      1
  5760  5824  5833      1
  5761  5825  5826      1
  5762  5825  5827      2
  5763  5826  5831      1
  5764  5826  5832      1
  5765  5833  5834      1
  5766  5833  5838      1
  5767  5833  5839      1
  5768  5834  5835      1
  5769  5834  5840      1
  5770  5834  5843      1
  5771  5835  5836      1
  5772  5835  5837      2
  5773  5836  5841      1
  5774  5836  5842      1
  5775  5843  5844      1
  5776  5843  5848      1
  5777  5843  5849      1
  5778  5844  5845      1
  5779  5844  5850      1
  5780  5844  5853      1
  5781  5845  5846      1
  5782  5845  5847      2
  5783  5846  5851      1
  5784  5846  5852      1
  5785  5853  5854      1
  5786  5853  5858      1
  5787  5853  5859      1
  5788  5854  5855      1
  5789  5854  5860      1
  5790  5854  5863      1
  5791  5855  5856      1
  5792  5855  5857      2
  5793  5856  5861      1
  5794  5856  5862      1
  5795  5863  5864      1
  5796  5863  5868      1
  5797  5863  5869      1
  5798  5864  5865      1
  5799  5864  5870      1
  5800  5865  5866      1
  5801  5865  5867      2
  5802  5866  5871      1
  5803  5866  5872      1
  5804  5873  5874      1
  5805  5873  5878      1
  5806  5873  5879      1
  5807  5874  5875      1
  5808  5874  5880      1
  5809  5874  5883      1
  5810  5875  5876      1
  5811  5875  5877      2
  5812  5876  5881      1
  5813  5876  5882      1
  5814  5883  5884      1
  5815  5883  5888      1
  5816  5883  5889      1
  5817  5884  5885      1
  5818  5884  5890      1
  5819  5884  5893      1
  5820  5885  5886      1
  5821  5885  5887      2
  5822  5886  5891      1
  5823  5886  5892      1
  5824  5893  5894      1
  5825  5893  5898      1
  5826  5893  5899      1
  5827  5894  5895      1
  5828  5894  5900      1
  5829  5894  5903      1
  5830  5895  5896      1
  5831  5895  5897      2
  5832  5896  5901      1
  5833  5896  5902      1
  5834  5903  5904      1
  5835  5903  5908      1
  5836  5903  5909      1
  5837  5904  5905      1
  5838  5904  5910      1
  5839  5904  5913      1
  5840  5905  5906      1
  5841  5905  5907      2
  5842  5906  5911      1
  5843  5906  5912      1
  5844  5913  5914      1
  5845  5913  5918      1
  5846  5913  5919      1
  5847  5914  5915      1
  5848  5914  5920      1
  5849  5914  5923      1
  5850  5915  5916      1
  5851  5915  5917      2
  5852  5916  5921      1
  5853  5916  5922      1
  5854  5923  5924      1
  5855  5923  5928      1
  5856  5923  5929      1
  5857  5924  5925      1
  5858  5924  5930      1
  5859  5924  5933      1
  5860  5925  5926      1
  5861  5925  5927      2
  5862  5926  5931      1
  5863  5926  5932      1
  5864  5933  5934      1
  5865  5933  5938      1
  5866  5933  5939      1
  5867  5934  5935      1
  5868  5934  5940      1
  5869  5934  5943      1
  5870  5935  5936      1
  5871  5935  5937      2
  5872  5936  5941      1
  5873  5936  5942      1
  5874  5943  5944      1
  5875  5943  5948      1
  5876  5943  5949      1
  5877  5944  5945      1
  5878  5944  5950      1
  5879  5944  5953      1
  5880  5945  5946      1
  5881  5945  5947      2
  5882  5946  5951      1
  5883  5946  5952      1
  5884  5953  5954      1
  5885  5953  5958      1
  5886  5953  5959      1
  5887  5954  5955      1
  5888  5954  5960      1
  5889  5954  5963      1
  5890  5955  5956      1
  5891  5955  5957      2
  5892  5956  5961      1
  5893  5956  5962      1
  5894  5963  5964      1
  5895  5963  5968      1
  5896  5963  5969      1
  5897  5964  5965      1
  5898  5964  5970      1
  5899  5964  5973      1
  5900  5965  5966      1
  5901  5965  5967      2
  5902  5966  5971      1
  5903  5966  5972      1
  5904  5973  5974      1
  5905  5973  5978      1
  5906  5973  5979      1
  5907  5974  5975      1
  5908  5974  5980      1
  5909  5974  5983      1
  5910  5975  5976      1
  5911  5975  5977      2
  5912  5976  5981      1
  5913  5976  5982      1
  5914  5983  5984      1
  5915  5983  5988      1
  5916  5983  5989      1
  5917  5984  5985      1
  5918  5984  5990      1
  5919  5984  5993      1
  5920  5985  5986      1
  5921  5985  5987      2
  5922  5986  5991      1
  5923  5986  5992      1
  5924  5993  5994      1
  5925  5993  5998      1
  5926  5993  5999      1
  5927  5994  5995      1
  5928  5994  6000      1
  5929  5994  6003      1
  5930  5995  5996      1
  5931  5995  5997      2
  5932  5996  6001      1
  5933  5996  6002      1
  5934  6003  6004      1
  5935  6003  6008      1
  5936  6003  6009      1
  5937  6004  6005      1
  5938  6004  6010      1
  5939  6004  6013      1
  5940  6005  6006      1
  5941  6005  6007      2
  5942  6006  6011      1
  5943  6006  6012      1
  5944  6013  6014      1
  5945  6013  6018      1
  5946  6013  6019      1
  5947  6014  6015      1
  5948  6014  6020      1
  5949  6014  6023      1
  5950  6015  6016      1
  5951  6015  6017      2
  5952  6016  6021      1
  5953  6016  6022      1
  5954  6023  6024      1
  5955  6023  6028      1
  5956  6023  6029      1
  5957  6024  6025      1
  5958  6024  6030      1
  5959  6024  6033      1
  5960  6025  6026      1
  5961  6025  6027      2
  5962  6026  6031      1
  5963  6026  6032      1
  5964  6033  6034      1
  5965  6033  6038      1
  5966  6033  6039      1
  5967  6034  6035      1
  5968  6034  6040      1
  5969  6034  6043      1
  5970  6035  6036      1
  5971  6035  6037      2
  5972  6036  6041      1
  5973  6036  6042      1
  5974  6043  6044      1
  5975  6043  6048      1
  5976  6043  6049      1
  5977  6044  6045      1
  5978  6044  6050      1
  5979  6044  6053      1
  5980  6045  6046      1
  5981  6045  6047      2
  5982  6046  6051      1
  5983  6046  6052      1
  5984  6053  6054      1
  5985  6053  6058      1
  5986  6053  6059      1
  5987  6054  6055      1
  5988  6054  6060      1
  5989  6054  6063      1
  5990  6055  6056      1
  5991  6055  6057      2
  5992  6056  6061      1
  5993  6056  6062      1
  5994  6063  6064      1
  5995  6063  6068      1
  5996  6063  6069      1
  5997  6064  6065      1
  5998  6064  6070      1
  5999  6064  6073      1
  6000  6065  6066      1
  6001  6065  6067      2
  6002  6066  6071      1
  6003  6066  6072      1
  6004  6073  6074      1
  6005  6073  6078      1
  6006  6073  6079      1
  6007  6074  6075      1
  6008  6074  6080      1
  6009  6074  6083      1
  6010  6075  6076      1
  6011  6075  6077      2
  6012  6076  6081      1
  6013  6076  6082      1
  6014  6083  6084      1
  6015  6083  6088      1
  6016  6083  6089      1
  6017  6084  6085      1
  6018  6084  6090      1
  6019  6084  6093      1
  6020  6085  6086      1
  6021  6085  6087      2
  6022  6086  6091      1
  6023  6086  6092      1
  6024  6093  6094      1
  6025  6093  6098      1
  6026  6093  6099      1
  6027  6094  6095      1
  6028  6094  6100      1
  6029  6094  6103      1
  6030  6095  6096      1
  6031  6095  6097      2
  6032  6096  6101      1
  6033  6096  6102      1
  6034  6103  6104      1
  6035  6103  6108      1
  6036  6103  6109      1
  6037  6104  6105      1
  6038  6104  6110      1
  6039  6104  6113      1
  6040  6105  6106      1
  6041  6105  6107      2
  6042  6106  6111      1
  6043  6106  6112      1
  6044  6113  6114      1
  6045  6113  6118      1
  6046  6113  6119      1
  6047  6114  6115      1
  6048  6114  6120      1
  6049  6114  6123      1
  6050  6115  6116      1
  6051  6115  6117      2
  6052  6116  6121      1
  6053  6116  6122      1
  6054  6123  6124      1
  6055  6123  6128      1
  6056  6123  6129      1
  6057  6124  6125      1
  6058  6124  6130      1
  6059  6124  6133      1
  6060  6125  6126      1
  6061  6125  6127      2
  6062  6126  6131      1
  6063  6126  6132      1
  6064  6133  6134      1
  6065  6133  6138      1
  6066  6133  6139      1
  6067  6134  6135      1
  6068  6134  6140      1
  6069  6134  6143      1
  6070  6135  6136      1
  6071  6135  6137      2
  6072  6136  6141      1
  6073  6136  6142      1
  6074  6143  6144      1
  6075  6143  6148      1
  6076  6143  6149      1
  6077  6144  6145      1
  6078  6144  6150      1
  6079  6144  6153      1
  6080  6145  6146      1
  6081  6145  6147      2
  6082  6146  6151      1
  6083  6146  6152      1
  6084  6153  6154      1
  6085  6153  6158      1
  6086  6153  6159      1
  6087  6154  6155      1
  6088  6154  6160      1
  6089  6154  6163      1
  6090  6155  6156      1
  6091  6155  6157      2
  6092  6156  6161      1
  6093  6156  6162      1
  6094  6163  6164      1
  6095  6163  6168      1
  6096  6163  6169      1
  6097  6164  6165      1
  6098  6164  6170      1
  6099  6164  6173      1
  6100  6165  6166      1
  6101  6165  6167      2
  6102  6166  6171      1
  6103  6166  6172      1
  6104  6173  6174      1
  6105  6173  6178      1
  6106  6173  6179      1
  6107  6174  6175      1
  6108  6174  6180      1
  6109  6174  6183      1
  6110  6175  6176      1
  6111  6175  6177      2
  6112  6176  6181      1
  6113  6176  6182      1
  6114  6183  6184      1
  6115  6183  6188      1
  6116  6183  6189      1
  6117  6184  6185      1
  6118  6184  6190      1
  6119  6184  6193      1
  6120  6185  6186      1
  6121  6185  6187      2
  6122  6186  6191      1
  6123  6186  6192      1
  6124  6193  6194      1
  6125  6193  6198      1
  6126  6193  6199      1
  6127  6194  6195      1
  6128  6194  6200      1
  6129  6194  6203      1
  6130  6195  6196      1
  6131  6195  6197      2
  6132  6196  6201      1
  6133  6196  6202      1
  6134  6203  6204      1
  6135  6203  6208      1
  6136  6203  6209      1
  6137  6204  6205      1
  6138  6204  6210      1
  6139  6204  6213      1
  6140  6205  6206      1
  6141  6205  6207      2
  6142  6206  6211      1
  6143  6206  6212      1
  6144  6213  6214      1
  6145  6213  6218      1
  6146  6213  6219      1
  6147  6214  6215      1
  6148  6214  6220      1
  6149  6214  6223      1
  6150  6215  6216      1
  6151  6215  6217      2
  6152  6216  6221      1
  6153  6216  6222      1
  6154  6223  6224      1
  6155  6223  6228      1
  6156  6223  6229      1
  6157  6224  6225      1
  6158  6224  6230      1
  6159  6224  6233      1
  6160  6225  6226      1
  6161  6225  6227      2
  6162  6226  6231      1
  6163  6226  6232      1
  6164  6233  6234      1
  6165  6233  6238      1
  6166  6233  6239      1
  6167  6234  6235      1
  6168  6234  6240      1
  6169  6234  6243      1
  6170  6235  6236      1
  6171  6235  6237      2
  6172  6236  6241      1
  6173  6236  6242      1
  6174  6243  6244      1
  6175  6243  6248      1
  6176  6243  6249      1
  6177  6244  6245      1
  6178  6244  6250      1
  6179  6244  6253      1
  6180  6245  6246      1
  6181  6245  6247      2
  6182  6246  6251      1
  6183  6246  6252      1
  6184  6253  6254      1
  6185  6253  6258      1
  6186  6253  6259      1
  6187  6254  6255      1
  6188  6254  6260      1
  6189  6254  6263      1
  6190  6255  6256      1
  6191  6255  6257      2
  6192  6256  6261      1
  6193  6256  6262      1
  6194  6263  6264      1
  6195  6263  6268      1
  6196  6263  6269      1
  6197  6264  6265      1
  6198  6264  6270      1
  6199  6264  6273      1
  6200  6265  6266      1
  6201  6265  6267      2
  6202  6266  6271      1
  6203  6266  6272      1
  6204  6273  6274      1
  6205  6273  6278      1
  6206  6273  6279      1
  6207  6274  6275      1
  6208  6274  6280      1
  6209  6274  6283      1
  6210  6275  6276      1
  6211  6275  6277      2
  6212  6276  6281      1
  6213  6276  6282      1
  6214  6283  6284      1
  6215  6283  6288      1
  6216  6283  6289      1
  6217  6284  6285      1
  6218  6284  6290      1
  6219  6284  6293      1
  6220  6285  6286      1
  6221  6285  6287      2
  6222  6286  6291      1
  6223  6286  6292      1
  6224  6293  6294      1
  6225  6293  6298      1
  6226  6293  6299      1
  6227  6294  6295      1
  6228  6294  6300      1
  6229  6294  6303      1
  6230  6295  6296      1
  6231  6295  6297      2
  6232  6296  6301      1
  6233  6296  6302      1
  6234  6303  6304      1
  6235  6303  6308      1
  6236  6303  6309      1
  6237  6304  6305      1
  6238  6304  6310      1
  6239  6305  6306      1
  6240  6305  6307      2
  6241  6306  6311      1
  6242  6306  6312      1
  6243  6313  6314      1
  6244  6313  6318      1
  6245  6313  6319      1
  6246  6314  6315      1
  6247  6314  6320      1
  6248  6314  6323      1
  6249  6315  6316      1
  6250  6315  6317      2
  6251  6316  6321      1
  6252  6316  6322      1
  6253  6323  6324      1
  6254  6323  6328      1
  6255  6323  6329      1
  6256  6324  6325      1
  6257  6324  6330      1
  6258  6324  6333      1
  6259  6325  6326      1
  6260  6325  6327      2
  6261  6326  6331      1
  6262  6326  6332      1
  6263  6333  6334      1
  6264  6333  6338      1
  6265  6333  6339      1
  6266  6334  6335      1
  6267  6334  6340      1
  6268  6334  6343      1
  6269  6335  6336      1
  6270  6335  6337      2
  6271  6336  6341      1
  6272  6336  6342      1
  6273  6343  6344      1
  6274  6343  6348      1
  6275  6343  6349      1
  6276  6344  6345      1
  6277  6344  6350      1
  6278  6344  6353      1
  6279  6345  6346      1
  6280  6345  6347      2
  6281  6346  6351      1
  6282  6346  6352      1
  6283  6353  6354      1
  6284  6353  6358      1
  6285  6353  6359      1
  6286  6354  6355      1
  6287  6354  6360      1
  6288  6354  6363      1
  6289  6355  6356      1
  6290  6355  6357      2
  6291  6356  6361      1
  6292  6356  6362      1
  6293  6363  6364      1
  6294  6363  6368      1
  6295  6363  6369      1
  6296  6364  6365      1
  6297  6364  6370      1
  6298  6364  6373      1
  6299  6365  6366      1
  6300  6365  6367      2
  6301  6366  6371      1
  6302  6366  6372      1
  6303  6373  6374      1
  6304  6373  6378      1
  6305  6373  6379      1
  6306  6374  6375      1
  6307  6374  6380      1
  6308  6374  6383      1
  6309  6375  6376      1
  6310  6375  6377      2
  6311  6376  6381      1
  6312  6376  6382      1
  6313  6383  6384      1
  6314  6383  6388      1
  6315  6383  6389      1
  6316  6384  6385      1
  6317  6384  6390      1
  6318  6384  6393      1
  6319  6385  6386      1
  6320  6385  6387      2
  6321  6386  6391      1
  6322  6386  6392      1
  6323  6393  6394      1
  6324  6393  6398      1
  6325  6393  6399      1
  6326  6394  6395      1
  6327  6394  6400      1
  6328  6394  6403      1
  6329  6395  6396      1
  6330  6395  6397      2
  6331  6396  6401      1
  6332  6396  6402      1
  6333  6403  6404      1
  6334  6403  6408      1
  6335  6403  6409      1
  6336  6404  6405      1
  6337  6404  6410      1
  6338  6405  6406      1
  6339  6405  6407      2
  6340  6406  6411      1
  6341  6406  6412      1
  6342  6413  6414      1
  6343  6413  6418      1
  6344  6413  6419      1
  6345  6414  6415      1
  6346  6414  6420      1
  6347  6414  6423      1
  6348  6415  6416      1
  6349  6415  6417      2
  6350  6416  6421      1
  6351  6416  6422      1
  6352  6423  6424      1
  6353  6423  6428      1
  6354  6423  6429      1
  6355  6424  6425      1
  6356  6424  6430      1
  6357  6424  6433      1
  6358  6425  6426      1
  6359  6425  6427      2
  6360  6426  6431      1
  6361  6426  6432      1
  6362  6433  6434      1
  6363  6433  6438      1
  6364  6433  6439      1
  6365  6434  6435      1
  6366  6434  6440      1
  6367  6434  6443      1
  6368  6435  6436      1
  6369  6435  6437      2
  6370  6436  6441      1
  6371  6436  6442      1
  6372  6443  6444      1
  6373  6443  6448      1
  6374  6443  6449      1
  6375  6444  6445      1
  6376  6444  6450      1
  6377  6444  6453      1
  6378  6445  6446      1
  6379  6445  6447      2
  6380  6446  6451      1
  6381  6446  6452      1
  6382  6453  6454      1
  6383  6453  6458      1
  6384  6453  6459      1
  6385  6454  6455      1
  6386  6454  6460      1
  6387  6454  6463      1
  6388  6455  6456      1
  6389  6455  6457      2
  6390  6456  6461      1
  6391  6456  6462      1
  6392  6463  6464      1
  6393  6463  6468      1
  6394  6463  6469      1
  6395  6464  6465      1
  6396  6464  6470      1
  6397  6464  6473      1
  6398  6465  6466      1
  6399  6465  6467      2
  6400  6466  6471      1
  6401  6466  6472      1
  6402  6473  6474      1
  6403  6473  6478      1
  6404  6473  6479      1
  6405  6474  6475      1
  6406  6474  6480      1
  6407  6474  6483      1
  6408  6475  6476      1
  6409  6475  6477      2
  6410  6476  6481      1
  6411  6476  6482      1
  6412  6483  6484      1
  6413  6483  6488      1
  6414  6483  6489      1
  6415  6484  6485      1
  6416  6484  6490      1
  6417  6484  6493      1
  6418  6485  6486      1
  6419  6485  6487      2
  6420  6486  6491      1
  6421  6486  6492      1
  6422  6493  6494      1
  6423  6493  6498      1
  6424  6493  6499      1
  6425  6494  6495      1
  6426  6494  6500      1
  6427  6494  6503      1
  6428  6495  6496      1
  6429  6495  6497      2
  6430  6496  6501      1
  6431  6496  6502      1
  6432  6503  6504      1
  6433  6503  6508      1
  6434  6503  6509      1
  6435  6504  6505      1
  6436  6504  6510      1
  6437  6504  6513      1
  6438  6505  6506      1
  6439  6505  6507      2
  6440  6506  6511      1
  6441  6506  6512      1
  6442  6513  6514      1
  6443  6513  6518      1
  6444  6513  6519      1
  6445  6514  6515      1
  6446  6514  6520      1
  6447  6514  6523      1
  6448  6515  6516      1
  6449  6515  6517      2
  6450  6516  6521      1
  6451  6516  6522      1
  6452  6523  6524      1
  6453  6523  6528      1
  6454  6523  6529      1
  6455  6524  6525      1
  6456  6524  6530      1
  6457  6524  6533      1
  6458  6525  6526      1
  6459  6525  6527      2
  6460  6526  6531      1
  6461  6526  6532      1
  6462  6533  6534      1
  6463  6533  6538      1
  6464  6533  6539      1
  6465  6534  6535      1
  6466  6534  6540      1
  6467  6534  6543      1
  6468  6535  6536      1
  6469  6535  6537      2
  6470  6536  6541      1
  6471  6536  6542      1
  6472  6543  6544      1
  6473  6543  6548      1
  6474  6543  6549      1
  6475  6544  6545      1
  6476  6544  6550      1
  6477  6544  6553      1
  6478  6545  6546      1
  6479  6545  6547      2
  6480  6546  6551      1
  6481  6546  6552      1
  6482  6553  6554      1
  6483  6553  6558      1
  6484  6553  6559      1
  6485  6554  6555      1
  6486  6554  6560      1
  6487  6554  6563      1
  6488  6555  6556      1
  6489  6555  6557      2
  6490  6556  6561      1
  6491  6556  6562      1
  6492  6563  6564      1
  6493  6563  6568      1
  6494  6563  6569      1
  6495  6564  6565      1
  6496  6564  6570      1
  6497  6564  6573      1
  6498  6565  6566      1
  6499  6565  6567      2
  6500  6566  6571      1
  6501  6566  6572      1
  6502  6573  6574      1
  6503  6573  6578      1
  6504  6573  6579      1
  6505  6574  6575      1
  6506  6574  6580      1
  6507  6574  6583      1
  6508  6575  6576      1
  6509  6575  6577      2
  6510  6576  6581      1
  6511  6576  6582      1
  6512  6583  6584      1
  6513  6583  6588      1
  6514  6583  6589      1
  6515  6584  6585      1
  6516  6584  6590      1
  6517  6584  6593      1
  6518  6585  6586      1
  6519  6585  6587      2
  6520  6586  6591      1
  6521  6586  6592      1
  6522  6593  6594      1
  6523  6593  6598      1
  6524  6593  6599      1
  6525  6594  6595      1
  6526  6594  6600      1
  6527  6594  6603      1
  6528  6595  6596      1
  6529  6595  6597      2
  6530  6596  6601      1
  6531  6596  6602      1
  6532  6603  6604      1
  6533  6603  6608      1
  6534  6603  6609      1
  6535  6604  6605      1
  6536  6604  6610      1
  6537  6604  6613      1
  6538  6605  6606      1
  6539  6605  6607      2
  6540  6606  6611      1
  6541  6606  6612      1
  6542  6613  6614      1
  6543  6613  6618      1
  6544  6613  6619      1
  6545  6614  6615      1
  6546  6614  6620      1
  6547  6614  6623      1
  6548  6615  6616      1
  6549  6615  6617      2
  6550  6616  6621      1
  6551  6616  6622      1
  6552  6623  6624      1
  6553  6623  6628      1
  6554  6623  6629      1
  6555  6624  6625      1
  6556  6624  6630      1
  6557  6624  6633      1
  6558  6625  6626      1
  6559  6625  6627      2
  6560  6626  6631      1
  6561  6626  6632      1
  6562  6633  6634      1
  6563  6633  6638      1
  6564  6633  6639      1
  6565  6634  6635      1
  6566  6634  6640      1
  6567  6634  6643      1
  6568  6635  6636      1
  6569  6635  6637      2
  6570  6636  6641      1
  6571  6636  6642      1
  6572  6643  6644      1
  6573  6643  6648      1
  6574  6643  6649      1
  6575  6644  6645      1
  6576  6644  6650      1
  6577  6644  6653      1
  6578  6645  6646      1
  6579  6645  6647      2
  6580  6646  6651      1
  6581  6646  6652      1
  6582  6653  6654      1
  6583  6653  6658      1
  6584  6653  6659      1
  6585  6654  6655      1
  6586  6654  6660      1
  6587  6654  6663      1
  6588  6655  6656      1
  6589  6655  6657      2
  6590  6656  6661      1
  6591  6656  6662      1
  6592  6663  6664      1
  6593  6663  6668      1
  6594  6663  6669      1
  6595  6664  6665      1
  6596  6664  6670      1
  6597  6664  6673      1
  6598  6665  6666      1
  6599  6665  6667      2
  6600  6666  6671      1
  6601  6666  6672      1
  6602  6673  6674      1
  6603  6673  6678      1
  6604  6673  6679      1
  6605  6674  6675      1
  6606  6674  6680      1
  6607  6674  6683      1
  6608  6675  6676      1
  6609  6675  6677      2
  6610  6676  6681      1
  6611  6676  6682      1
  6612  6683  6684      1
  6613  6683  6688      1
  6614  6683  6689      1
  6615  6684  6685      1
  6616  6684  6690      1
  6617  6684  6693      1
  6618  6685  6686      1
  6619  6685  6687      2
  6620  6686  6691      1
  6621  6686  6692      1
  6622  6693  6694      1
  6623  6693  6698      1
  6624  6693  6699      1
  6625  6694  6695      1
  6626  6694  6700      1
  6627  6694  6703      1
  6628  6695  6696      1
  6629  6695  6697      2
  6630  6696  6701      1
  6631  6696  6702      1
  6632  6703  6704      1
  6633  6703  6708      1
  6634  6703  6709      1
  6635  6704  6705      1
  6636  6704  6710      1
  6637  6704  6713      1
  6638  6705  6706      1
  6639  6705  6707      2
  6640  6706  6711      1
  6641  6706  6712      1
  6642  6713  6714      1
  6643  6713  6718      1
  6644  6713  6719      1
  6645  6714  6715      1
  6646  6714  6720      1
  6647  6714  6723      1
  6648  6715  6716      1
  6649  6715  6717      2
  6650  6716  6721      1
  6651  6716  6722      1
  6652  6723  6724      1
  6653  6723  6728      1
  6654  6723  6729      1
  6655  6724  6725      1
  6656  6724  6730      1
  6657  6724  6733      1
  6658  6725  6726      1
  6659  6725  6727      2
  6660  6726  6731      1
  6661  6726  6732      1
  6662  6733  6734      1
  6663  6733  6738      1
  6664  6733  6739      1
  6665  6734  6735      1
  6666  6734  6740      1
  6667  6734  6743      1
  6668  6735  6736      1
  6669  6735  6737      2
  6670  6736  6741      1
  6671  6736  6742      1
  6672  6743  6744      1
  6673  6743  6748      1
  6674  6743  6749      1
  6675  6744  6745      1
  6676  6744  6750      1
  6677  6744  6753      1
  6678  6745  6746      1
  6679  6745  6747      2
  6680  6746  6751      1
  6681  6746  6752      1
  6682  6753  6754      1
  6683  6753  6758      1
  6684  6753  6759      1
  6685  6754  6755      1
  6686  6754  6760      1
  6687  6754  6763      1
  6688  6755  6756      1
  6689  6755  6757      2
  6690  6756  6761      1
  6691  6756  6762      1
  6692  6763  6764      1
  6693  6763  6768      1
  6694  6763  6769      1
  6695  6764  6765      1
  6696  6764  6770      1
  6697  6764  6773      1
  6698  6765  6766      1
  6699  6765  6767      2
  6700  6766  6771      1
  6701  6766  6772      1
  6702  6773  6774      1
  6703  6773  6778      1
  6704  6773  6779      1
  6705  6774  6775      1
  6706  6774  6780      1
  6707  6774  6783      1
  6708  6775  6776      1
  6709  6775  6777      2
  6710  6776  6781      1
  6711  6776  6782      1
  6712  6783  6784      1
  6713  6783  6788      1
  6714  6783  6789      1
  6715  6784  6785      1
  6716  6784  6790      1
  6717  6784  6793      1
  6718  6785  6786      1
  6719  6785  6787      2
  6720  6786  6791      1
  6721  6786  6792      1
  6722  6793  6794      1
  6723  6793  6798      1
  6724  6793  6799      1
  6725  6794  6795      1
  6726  6794  6800      1
  6727  6794  6803      1
  6728  6795  6796      1
  6729  6795  6797      2
  6730  6796  6801      1
  6731  6796  6802      1
  6732  6803  6804      1
  6733  6803  6808      1
  6734  6803  6809      1
  6735  6804  6805      1
  6736  6804  6810      1
  6737  6804  6813      1
  6738  6805  6806      1
  6739  6805  6807      2
  6740  6806  6811      1
  6741  6806  6812      1
  6742  6813  6814      1
  6743  6813  6818      1
  6744  6813  6819      1
  6745  6814  6815      1
  6746  6814  6820      1
  6747  6814  6823      1
  6748  6815  6816      1
  6749  6815  6817      2
  6750  6816  6821      1
  6751  6816  6822      1
  6752  6823  6824      1
  6753  6823  6828      1
  6754  6823  6829      1
  6755  6824  6825      1
  6756  6824  6830      1
  6757  6824  6833      1
  6758  6825  6826      1
  6759  6825  6827      2
  6760  6826  6831      1
  6761  6826  6832      1
  6762  6833  6834      1
  6763  6833  6838      1
  6764  6833  6839      1
  6765  6834  6835      1
  6766  6834  6840      1
  6767  6835  6836      1
  6768  6835  6837      2
  6769  6836  6841      1
  6770  6836  6842      1
  6771  6843  6844      1
  6772  6843  6848      1
  6773  6843  6849      1
  6774  6844  6845      1
  6775  6844  6850      1
  6776  6844  6853      1
  6777  6845  6846      1
  6778  6845  6847      2
  6779  6846  6851      1
  6780  6846  6852      1
  6781  6853  6854      1
  6782  6853  6858      1
  6783  6853  6859      1
  6784  6854  6855      1
  6785  6854  6860      1
  6786  6854  6863      1
  6787  6855  6856      1
  6788  6855  6857      2
  6789  6856  6861      1
  6790  6856  6862      1
  6791  6863  6864      1
  6792  6863  6868      1
  6793  6863  6869      1
  6794  6864  6865      1
  6795  6864  6870      1
  6796  6864  6873      1
  6797  6865  6866      1
  6798  6865  6867      2
  6799  6866  6871      1
  6800  6866  6872      1
  6801  6873  6874      1
  6802  6873  6878      1
  6803  6873  6879      1
  6804  6874  6875      1
  6805  6874  6880      1
  6806  6874  6883      1
  6807  6875  6876      1
  6808  6875  6877      2
  6809  6876  6881      1
  6810  6876  6882      1
  6811  6883  6884      1
  6812  6883  6888      1
  6813  6883  6889      1
  6814  6884  6885      1
  6815  6884  6890      1
  6816  6884  6893      1
  6817  6885  6886      1
  6818  6885  6887      2
  6819  6886  6891      1
  6820  6886  6892      1
  6821  6893  6894      1
  6822  6893  6898      1
  6823  6893  6899      1
  6824  6894  6895      1
  6825  6894  6900      1
  6826  6894  6903      1
  6827  6895  6896      1
  6828  6895  6897      2
  6829  6896  6901      1
  6830  6896  6902      1
  6831  6903  6904      1
  6832  6903  6908      1
  6833  6903  6909      1
  6834  6904  6905      1
  6835  6904  6910      1
  6836  6904  6913      1
  6837  6905  6906      1
  6838  6905  6907      2
  6839  6906  6911      1
  6840  6906  6912      1
  6841  6913  6914      1
  6842  6913  6918      1
  6843  6913  6919      1
  6844  6914  6915      1
  6845  6914  6920      1
  6846  6914  6923      1
  6847  6915  6916      1
  6848  6915  6917      2
  6849  6916  6921      1
  6850  6916  6922      1
  6851  6923  6924      1
  6852  6923  6928      1
  6853  6923  6929      1
  6854  6924  6925      1
  6855  6924  6930      1
  6856  6924  6933      1
  6857  6925  6926      1
  6858  6925  6927      2
  6859  6926  6931      1
  6860  6926  6932      1
  6861  6933  6934      1
  6862  6933  6938      1
  6863  6933  6939      1
  6864  6934  6935      1
  6865  6934  6940      1
  6866  6934  6943      1
  6867  6935  6936      1
  6868  6935  6937      2
  6869  6936  6941      1
  6870  6936  6942      1
  6871  6943  6944      1
  6872  6943  6948      1
  6873  6943  6949      1
  6874  6944  6945      1
  6875  6944  6950      1
  6876  6944  6953      1
  6877  6945  6946      1
  6878  6945  6947      2
  6879  6946  6951      1
  6880  6946  6952      1
  6881  6953  6954      1
  6882  6953  6958      1
  6883  6953  6959      1
  6884  6954  6955      1
  6885  6954  6960      1
  6886  6954  6963      1
  6887  6955  6956      1
  6888  6955  6957      2
  6889  6956  6961      1
  6890  6956  6962      1
  6891  6963  6964      1
  6892  6963  6968      1
  6893  6963  6969      1
  6894  6964  6965      1
  6895  6964  6970      1
  6896  6964  6973      1
  6897  6965  6966      1
  6898  6965  6967      2
  6899  6966  6971      1
  6900  6966  6972      1
  6901  6973  6974      1
  6902  6973  6978      1
  6903  6973  6979      1
  6904  6974  6975      1
  6905  6974  6980      1
  6906  6974  6983      1
  6907  6975  6976      1
  6908  6975  6977      2
  6909  6976  6981      1
  6910  6976  6982      1
  6911  6983  6984      1
  6912  6983  6988      1
  6913  6983  6989      1
  6914  6984  6985      1
  6915  6984  6990      1
  6916  6984  6993      1
  6917  6985  6986      1
  6918  6985  6987      2
  6919  6986  6991      1
  6920  6986  6992      1
  6921  6993  6994      1
  6922  6993  6998      1
  6923  6993  6999      1
  6924  6994  6995      1
  6925  6994  7000      1
  6926  6995  6996      1
  6927  6995  6997      2
  6928  6996  7001      1
  6929  6996  7002      1
  6930  7003  7004      1
  6931  7003  7008      1
  6932  7003  7009      1
  6933  7004  7005      1
  6934  7004  7010      1
  6935  7004  7013      1
  6936  7005  7006      1
  6937  7005  7007      2
  6938  7006  7011      1
  6939  7006  7012      1
  6940  7013  7014      1
  6941  7013  7018      1
  6942  7013  7019      1
  6943  7014  7015      1
  6944  7014  7020      1
  6945  7014  7023      1
  6946  7015  7016      1
  6947  7015  7017      2
  6948  7016  7021      1
  6949  7016  7022      1
  6950  7023  7024      1
  6951  7023  7028      1
  6952  7023  7029      1
  6953  7024  7025      1
  6954  7024  7030      1
  6955  7024  7033      1
  6956  7025  7026      1
  6957  7025  7027      2
  6958  7026  7031      1
  6959  7026  7032      1
  6960  7033  7034      1
  6961  7033  7038      1
  6962  7033  7039      1
  6963  7034  7035      1
  6964  7034  7040      1
  6965  7034  7043      1
  6966  7035  7036      1
  6967  7035  7037      2
  6968  7036  7041      1
  6969  7036  7042      1
  6970  7043  7044      1
  6971  7043  7048      1
  6972  7043  7049      1
  6973  7044  7045      1
  6974  7044  7050      1
  6975  7044  7053      1
  6976  7045  7046      1
  6977  7045  7047      2
  6978  7046  7051      1
  6979  7046  7052      1
  6980  7053  7054      1
  6981  7053  7058      1
  6982  7053  7059      1
  6983  7054  7055      1
  6984  7054  7060      1
  6985  7054  7063      1
  6986  7055  7056      1
  6987  7055  7057      2
  6988  7056  7061      1
  6989  7056  7062      1
  6990  7063  7064      1
  6991  7063  7068      1
  6992  7063  7069      1
  6993  7064  7065      1
  6994  7064  7070      1
  6995  7064  7073      1
  6996  7065  7066      1
  6997  7065  7067      2
  6998  7066  7071      1
  6999  7066  7072      1
  7000  7073  7074      1
  7001  7073  7078      1
  7002  7073  7079      1
  7003  7074  7075      1
  7004  7074  7080      1
  7005  7074  7083      1
  7006  7075  7076      1
  7007  7075  7077      2
  7008  7076  7081      1
  7009  7076  7082      1
  7010  7083  7084      1
  7011  7083  7088      1
  7012  7083  7089      1
  7013  7084  7085      1
  7014  7084  7090      1
  7015  7084  7093      1
  7016  7085  7086      1
  7017  7085  7087      2
  7018  7086  7091      1
  7019  7086  7092      1
  7020  7093  7094      1
  7021  7093  7098      1
  7022  7093  7099      1
  7023  7094  7095      1
  7024  7094  7100      1
  7025  7094  7103      1
  7026  7095  7096      1
  7027  7095  7097      2
  7028  7096  7101      1
  7029  7096  7102      1
  7030  7103  7104      1
  7031  7103  7108      1
  7032  7103  7109      1
  7033  7104  7105      1
  7034  7104  7110      1
  7035  7104  7113      1
  7036  7105  7106      1
  7037  7105  7107      2
  7038  7106  7111      1
  7039  7106  7112      1
  7040  7113  7114      1
  7041  7113  7118      1
  7042  7113  7119      1
  7043  7114  7115      1
  7044  7114  7120      1
  7045  7114  7123      1
  7046  7115  7116      1
  7047  7115  7117      2
  7048  7116  7121      1
  7049  7116  7122      1
  7050  7123  7124      1
  7051  7123  7128      1
  7052  7123  7129      1
  7053  7124  7125      1
  7054  7124  7130      1
  7055  7124  7133      1
  7056  7125  7126      1
  7057  7125  7127      2
  7058  7126  7131      1
  7059  7126  7132      1
  7060  7133  7134      1
  7061  7133  7138      1
  7062  7133  7139      1
  7063  7134  7135      1
  7064  7134  7140      1
  7065  7134  7143      1
  7066  7135  7136      1
  7067  7135  7137      2
  7068  7136  7141      1
  7069  7136  7142      1
  7070  7143  7144      1
  7071  7143  7148      1
  7072  7143  7149      1
  7073  7144  7145      1
  7074  7144  7150      1
  7075  7144  7153      1
  7076  7145  7146      1
  7077  7145  7147      2
  7078  7146  7151      1
  7079  7146  7152      1
  7080  7153  7154      1
  7081  7153  7158      1
  7082  7153  7159      1
  7083  7154  7155      1
  7084  7154  7160      1
  7085  7154  7163      1
  7086  7155  7156      1
  7087  7155  7157      2
  7088  7156  7161      1
  7089  7156  7162      1
  7090  7163  7164      1
  7091  7163  7168      1
  7092  7163  7169      1
  7093  7164  7165      1
  7094  7164  7170      1
  7095  7164  7173      1
  7096  7165  7166      1
  7097  7165  7167      2
  7098  7166  7171      1
  7099  7166  7172      1
  7100  7173  7174      1
  7101  7173  7178      1
  7102  7173  7179      1
  7103  7174  7175      1
  7104  7174  7180      1
  7105  7174  7183      1
  7106  7175  7176      1
  7107  7175  7177      2
  7108  7176  7181      1
  7109  7176  7182      1
  7110  7183  7184      1
  7111  7183  7188      1
  7112  7183  7189      1
  7113  7184  7185      1
  7114  7184  7190      1
  7115  7184  7193      1
  7116  7185  7186      1
  7117  7185  7187      2
  7118  7186  7191      1
  7119  7186  7192      1
  7120  7193  7194      1
  7121  7193  7198      1
  7122  7193  7199      1
  7123  7194  7195      1
  7124  7194  7200      1
  7125  7194  7203      1
  7126  7195  7196      1
  7127  7195  7197      2
  7128  7196  7201      1
  7129  7196  7202      1
  7130  7203  7204      1
  7131  7203  7208      1
  7132  7203  7209      1
  7133  7204  7205      1
  7134  7204  7210      1
  7135  7204  7213      1
  7136  7205  7206      1
  7137  7205  7207      2
  7138  7206  7211      1
  7139  7206  7212      1
  7140  7213  7214      1
  7141  7213  7218      1
  7142  7213  7219      1
  7143  7214  7215      1
  7144  7214  7220      1
  7145  7214  7223      1
  7146  7215  7216      1
  7147  7215  7217      2
  7148  7216  7221      1
  7149  7216  7222      1
  7150  7223  7224      1
  7151  7223  7228      1
  7152  7223  7229      1
  7153  7224  7225      1
  7154  7224  7230      1
  7155  7224  7233      1
  7156  7225  7226      1
  7157  7225  7227      2
  7158  7226  7231      1
  7159  7226  7232      1
  7160  7233  7234      1
  7161  7233  7238      1
  7162  7233  7239      1
  7163  7234  7235      1
  7164  7234  7240      1
  7165  7235  7236      1
  7166  7235  7237      2
  7167  7236  7241      1
  7168  7236  7242      1
  7169  7243  7244      1
  7170  7243  7248      1
  7171  7243  7249      1
  7172  7244  7245      1
  7173  7244  7250      1
  7174  7244  7253      1
  7175  7245  7246      1
  7176  7245  7247      2
  7177  7246  7251      1
  7178  7246  7252      1
  7179  7253  7254      1
  7180  7253  7258      1
  7181  7253  7259      1
  7182  7254  7255      1
  7183  7254  7260      1
  7184  7254  7263      1
  7185  7255  7256      1
  7186  7255  7257      2
  7187  7256  7261      1
  7188  7256  7262      1
  7189  7263  7264      1
  7190  7263  7268      1
  7191  7263  7269      1
  7192  7264  7265      1
  7193  7264  7270      1
  7194  7264  7273      1
  7195  7265  7266      1
  7196  7265  7267      2
  7197  7266  7271      1
  7198  7266  7272      1
  7199  7273  7274      1
  7200  7273  7278      1
  7201  7273  7279      1
  7202  7274  7275      1
  7203  7274  7280      1
  7204  7274  7283      1
  7205  7275  7276      1
  7206  7275  7277      2
  7207  7276  7281      1
  7208  7276  7282      1
  7209  7283  7284      1
  7210  7283  7288      1
  7211  7283  7289      1
  7212  7284  7285      1
  7213  7284  7290      1
  7214  7284  7293      1
  7215  7285  7286      1
  7216  7285  7287      2
  7217  7286  7291      1
  7218  7286  7292      1
  7219  7293  7294      1
  7220  7293  7298      1
  7221  7293  7299      1
  7222  7294  7295      1
  7223  7294  7300      1
  7224  7294  7303      1
  7225  7295  7296      1
  7226  7295  7297      2
  7227  7296  7301      1
  7228  7296  7302      1
  7229  7303  7304      1
  7230  7303  7308      1
  7231  7303  7309      1
  7232  7304  7305      1
  7233  7304  7310      1
  7234  7304  7313      1
  7235  7305  7306      1
  7236  7305  7307      2
  7237  7306  7311      1
  7238  7306  7312      1
  7239  7313  7314      1
  7240  7313  7318      1
  7241  7313  7319      1
  7242  7314  7315      1
  7243  7314  7320      1
  7244  7314  7323      1
  7245  7315  7316      1
  7246  7315  7317      2
  7247  7316  7321      1
  7248  7316  7322      1
  7249  7323  7324      1
  7250  7323  7328      1
  7251  7323  7329      1
  7252  7324  7325      1
  7253  7324  7330      1
  7254  7324  7333      1
  7255  7325  7326      1
  7256  7325  7327      2
  7257  7326  7331      1
  7258  7326  7332      1
  7259  7333  7334      1
  7260  7333  7338      1
  7261  7333  7339      1
  7262  7334  7335      1
  7263  7334  7340      1
  7264  7334  7343      1
  7265  7335  7336      1
  7266  7335  7337      2
  7267  7336  7341      1
  7268  7336  7342      1
  7269  7343  7344      1
  7270  7343  7348      1
  7271  7343  7349      1
  7272  7344  7345      1
  7273  7344  7350      1
  7274  7344  7353      1
  7275  7345  7346      1
  7276  7345  7347      2
  7277  7346  7351      1
  7278  7346  7352      1
  7279  7353  7354      1
  7280  7353  7358      1
  7281  7353  7359      1
  7282  7354  7355      1
  7283  7354  7360      1
  7284  7354  7363      1
  7285  7355  7356      1
  7286  7355  7357      2
  7287  7356  7361      1
  7288  7356  7362      1
  7289  7363  7364      1
  7290  7363  7368      1
  7291  7363  7369      1
  7292  7364  7365      1
  7293  7364  7370      1
  7294  7364  7373      1
  7295  7365  7366      1
  7296  7365  7367      2
  7297  7366  7371      1
  7298  7366  7372      1
  7299  7373  7374      1
  7300  7373  7378      1
  7301  7373  7379      1
  7302  7374  7375      1
  7303  7374  7380      1
  7304  7374  7383      1
  7305  7375  7376      1
  7306  7375  7377      2
  7307  7376  7381      1
  7308  7376  7382      1
  7309  7383  7384      1
  7310  7383  7388      1
  7311  7383  7389      1
  7312  7384  7385      1
  7313  7384  7390      1
  7314  7384  7393      1
  7315  7385  7386      1
  7316  7385  7387      2
  7317  7386  7391      1
  7318  7386  7392      1
  7319  7393  7394      1
  7320  7393  7398      1
  7321  7393  7399      1
  7322  7394  7395      1
  7323  7394  7400      1
  7324  7394  7403      1
  7325  7395  7396      1
  7326  7395  7397      2
  7327  7396  7401      1
  7328  7396  7402      1
  7329  7403  7404      1
  7330  7403  7408      1
  7331  7403  7409      1
  7332  7404  7405      1
  7333  7404  7410      1
  7334  7404  7413      1
  7335  7405  7406      1
  7336  7405  7407      2
  7337  7406  7411      1
  7338  7406  7412      1
  7339  7413  7414      1
  7340  7413  7418      1
  7341  7413  7419      1
  7342  7414  7415      1
  7343  7414  7420      1
  7344  7414  7423      1
  7345  7415  7416      1
  7346  7415  7417      2
  7347  7416  7421      1
  7348  7416  7422      1
  7349  7423  7424      1
  7350  7423  7428      1
  7351  7423  7429      1
  7352  7424  7425      1
  7353  7424  7430      1
  7354  7424  7433      1
  7355  7425  7426      1
  7356  7425  7427      2
  7357  7426  7431      1
  7358  7426  7432      1
  7359  7433  7434      1
  7360  7433  7438      1
  7361  7433  7439      1
  7362  7434  7435      1
  7363  7434  7440      1
  7364  7434  7443      1
  7365  7435  7436      1
  7366  7435  7437      2
  7367  7436  7441      1
  7368  7436  7442      1
  7369  7443  7444      1
  7370  7443  7448      1
  7371  7443  7449      1
  7372  7444  7445      1
  7373  7444  7450      1
  7374  7444  7453      1
  7375  7445  7446      1
  7376  7445  7447      2
  7377  7446  7451      1
  7378  7446  7452      1
  7379  7453  7454      1
  7380  7453  7458      1
  7381  7453  7459      1
  7382  7454  7455      1
  7383  7454  7460      1
  7384  7454  7463      1
  7385  7455  7456      1
  7386  7455  7457      2
  7387  7456  7461      1
  7388  7456  7462      1
  7389  7463  7464      1
  7390  7463  7468      1
  7391  7463  7469      1
  7392  7464  7465      1
  7393  7464  7470      1
  7394  7464  7473      1
  7395  7465  7466      1
  7396  7465  7467      2
  7397  7466  7471      1
  7398  7466  7472      1
  7399  7473  7474      1
  7400  7473  7478      1
  7401  7473  7479      1
  7402  7474  7475      1
  7403  7474  7480      1
  7404  7474  7483      1
  7405  7475  7476      1
  7406  7475  7477      2
  7407  7476  7481      1
  7408  7476  7482      1
  7409  7483  7484      1
  7410  7483  7488      1
  7411  7483  7489      1
  7412  7484  7485      1
  7413  7484  7490      1
  7414  7484  7493      1
  7415  7485  7486      1
  7416  7485  7487      2
  7417  7486  7491      1
  7418  7486  7492      1
  7419  7493  7494      1
  7420  7493  7498      1
  7421  7493  7499      1
  7422  7494  7495      1
  7423  7494  7500      1
  7424  7494  7503      1
  7425  7495  7496      1
  7426  7495  7497      2
  7427  7496  7501      1
  7428  7496  7502      1
  7429  7503  7504      1
  7430  7503  7508      1
  7431  7503  7509      1
  7432  7504  7505      1
  7433  7504  7510      1
  7434  7505  7506      1
  7435  7505  7507      2
  7436  7506  7511      1
  7437  7506  7512      1
  7438  7513  7514      1
  7439  7513  7518      1
  7440  7513  7519      1
  7441  7514  7515      1
  7442  7514  7520      1
  7443  7514  7523      1
  7444  7515  7516      1
  7445  7515  7517      2
  7446  7516  7521      1
  7447  7516  7522      1
  7448  7523  7524      1
  7449  7523  7528      1
  7450  7523  7529      1
  7451  7524  7525      1
  7452  7524  7530      1
  7453  7524  7533      1
  7454  7525  7526      1
  7455  7525  7527      2
  7456  7526  7531      1
  7457  7526  7532      1
  7458  7533  7534      1
  7459  7533  7538      1
  7460  7533  7539      1
  7461  7534  7535      1
  7462  7534  7540      1
  7463  7534  7543      1
  7464  7535  7536      1
  7465  7535  7537      2
  7466  7536  7541      1
  7467  7536  7542      1
  7468  7543  7544      1
  7469  7543  7548      1
  7470  7543  7549      1
  7471  7544  7545      1
  7472  7544  7550      1
  7473  7544  7553      1
  7474  7545  7546      1
  7475  7545  7547      2
  7476  7546  7551      1
  7477  7546  7552      1
  7478  7553  7554      1
  7479  7553  7558      1
  7480  7553  7559      1
  7481  7554  7555      1
  7482  7554  7560      1
  7483  7554  7563      1
  7484  7555  7556      1
  7485  7555  7557      2
  7486  7556  7561      1
  7487  7556  7562      1
  7488  7563  7564      1
  7489  7563  7568      1
  7490  7563  7569      1
  7491  7564  7565      1
  7492  7564  7570      1
  7493  7564  7573      1
  7494  7565  7566      1
  7495  7565  7567      2
  7496  7566  7571      1
  7497  7566  7572      1
  7498  7573  7574      1
  7499  7573  7578      1
  7500  7573  7579      1
  7501  7574  7575      1
  7502  7574  7580      1
  7503  7574  7583      1
  7504  7575  7576      1
  7505  7575  7577      2
  7506  7576  7581      1
  7507  7576  7582      1
  7508  7583  7584      1
  7509  7583  7588      1
  7510  7583  7589      1
  7511  7584  7585      1
  7512  7584  7590      1
  7513  7584  7593      1
  7514  7585  7586      1
  7515  7585  7587      2
  7516  7586  7591      1
  7517  7586  7592      1
  7518  7593  7594      1
  7519  7593  7598      1
  7520  7593  7599      1
  7521  7594  7595      1
  7522  7594  7600      1
  7523  7594  7603      1
  7524  7595  7596      1
  7525  7595  7597      2
  7526  7596  7601      1
  7527  7596  7602      1
  7528  7603  7604      1
  7529  7603  7608      1
  7530  7603  7609      1
  7531  7604  7605      1
  7532  7604  7610      1
  7533  7604  7613      1
  7534  7605  7606      1
  7535  7605  7607      2
  7536  7606  7611      1
  7537  7606  7612      1
  7538  7613  7614      1
  7539  7613  7618      1
  7540  7613  7619      1
  7541  7614  7615      1
  7542  7614  7620      1
  7543  7614  7623      1
  7544  7615  7616      1
  7545  7615  7617      2
  7546  7616  7621      1
  7547  7616  7622      1
  7548  7623  7624      1
  7549  7623  7628      1
  7550  7623  7629      1
  7551  7624  7625      1
  7552  7624  7630      1
  7553  7624  7633      1
  7554  7625  7626      1
  7555  7625  7627      2
  7556  7626  7631      1
  7557  7626  7632      1
  7558  7633  7634      1
  7559  7633  7638      1
  7560  7633  7639      1
  7561  7634  7635      1
  7562  7634  7640      1
  7563  7634  7643      1
  7564  7635  7636      1
  7565  7635  7637      2
  7566  7636  7641      1
  7567  7636  7642      1
  7568  7643  7644      1
  7569  7643  7648      1
  7570  7643  7649      1
  7571  7644  7645      1
  7572  7644  7650      1
  7573  7644  7653      1
  7574  7645  7646      1
  7575  7645  7647      2
  7576  7646  7651      1
  7577  7646  7652      1
  7578  7653  7654      1
  7579  7653  7658      1
  7580  7653  7659      1
  7581  7654  7655      1
  7582  7654  7660      1
  7583  7654  7663      1
  7584  7655  7656      1
  7585  7655  7657      2
  7586  7656  7661      1
  7587  7656  7662      1
  7588  7663  7664      1
  7589  7663  7668      1
  7590  7663  7669      1
  7591  7664  7665      1
  7592  7664  7670      1
  7593  7664  7673      1
  7594  7665  7666      1
  7595  7665  7667      2
  7596  7666  7671      1
  7597  7666  7672      1
  7598  7673  7674      1
  7599  7673  7678      1
  7600  7673  7679      1
  7601  7674  7675      1
  7602  7674  7680      1
  7603  7674  7683      1
  7604  7675  7676      1
  7605  7675  7677      2
  7606  7676  7681      1
  7607  7676  7682      1
  7608  7683  7684      1
  7609  7683  7688      1
  7610  7683  7689      1
  7611  7684  7685      1
  7612  7684  7690      1
  7613  7684  7693      1
  7614  7685  7686      1
  7615  7685  7687      2
  7616  7686  7691      1
  7617  7686  7692      1
  7618  7693  7694      1
  7619  7693  7698      1
  7620  7693  7699      1
  7621  7694  7695      1
  7622  7694  7700      1
  7623  7694  7703      1
  7624  7695  7696      1
  7625  7695  7697      2
  7626  7696  7701      1
  7627  7696  7702      1
  7628  7703  7704      1
  7629  7703  7708      1
  7630  7703  7709      1
  7631  7704  7705      1
  7632  7704  7710      1
  7633  7704  7713      1
  7634  7705  7706      1
  7635  7705  7707      2
  7636  7706  7711      1
  7637  7706  7712      1
  7638  7713  7714      1
  7639  7713  7718      1
  7640  7713  7719      1
  7641  7714  7715      1
  7642  7714  7720      1
  7643  7714  7723      1
  7644  7715  7716      1
  7645  7715  7717      2
  7646  7716  7721      1
  7647  7716  7722      1
  7648  7723  7724      1
  7649  7723  7728      1
  7650  7723  7729      1
  7651  7724  7725      1
  7652  7724  7730      1
  7653  7724  7733      1
  7654  7725  7726      1
  7655  7725  7727      2
  7656  7726  7731      1
  7657  7726  7732      1
  7658  7733  7734      1
  7659  7733  7738      1
  7660  7733  7739      1
  7661  7734  7735      1
  7662  7734  7740      1
  7663  7734  7743      1
  7664  7735  7736      1
  7665  7735  7737      2
  7666  7736  7741      1
  7667  7736  7742      1
  7668  7743  7744      1
  7669  7743  7748      1
  7670  7743  7749      1
  7671  7744  7745      1
  7672  7744  7750      1
  7673  7744  7753      1
  7674  7745  7746      1
  7675  7745  7747      2
  7676  7746  7751      1
  7677  7746  7752      1
  7678  7753  7754      1
  7679  7753  7758      1
  7680  7753  7759      1
  7681  7754  7755      1
  7682  7754  7760      1
  7683  7754  7763      1
  7684  7755  7756      1
  7685  7755  7757      2
  7686  7756  7761      1
  7687  7756  7762      1
  7688  7763  7764      1
  7689  7763  7768      1
  7690  7763  7769      1
  7691  7764  7765      1
  7692  7764  7770      1
  7693  7764  7773      1
  7694  7765  7766      1
  7695  7765  7767      2
  7696  7766  7771      1
  7697  7766  7772      1
  7698  7773  7774      1
  7699  7773  7778      1
  7700  7773  7779      1
  7701  7774  7775      1
  7702  7774  7780      1
  7703  7774  7783      1
  7704  7775  7776      1
  7705  7775  7777      2
  7706  7776  7781      1
  7707  7776  7782      1
  7708  7783  7784      1
  7709  7783  7788      1
  7710  7783  7789      1
  7711  7784  7785      1
  7712  7784  7790      1
  7713  7784  7793      1
  7714  7785  7786      1
  7715  7785  7787      2
  7716  7786  7791      1
  7717  7786  7792      1
  7718  7793  7794      1
  7719  7793  7798      1
  7720  7793  7799      1
  7721  7794  7795      1
  7722  7794  7800      1
  7723  7794  7803      1
  7724  7795  7796      1
  7725  7795  7797      2
  7726  7796  7801      1
  7727  7796  7802      1
  7728  7803  7804      1
  7729  7803  7808      1
  7730  7803  7809      1
  7731  7804  7805      1
  7732  7804  7810      1
  7733  7804  7813      1
  7734  7805  7806      1
  7735  7805  7807      2
  7736  7806  7811      1
  7737  7806  7812      1
  7738  7813  7814      1
  7739  7813  7818      1
  7740  7813  7819      1
  7741  7814  7815      1
  7742  7814  7820      1
  7743  7814  7823      1
  7744  7815  7816      1
  7745  7815  7817      2
  7746  7816  7821      1
  7747  7816  7822      1
  7748  7823  7824      1
  7749  7823  7828      1
  7750  7823  7829      1
  7751  7824  7825      1
  7752  7824  7830      1
  7753  7824  7833      1
  7754  7825  7826      1
  7755  7825  7827      2
  7756  7826  7831      1
  7757  7826  7832      1
  7758  7833  7834      1
  7759  7833  7838      1
  7760  7833  7839      1
  7761  7834  7835      1
  7762  7834  7840      1
  7763  7834  7843      1
  7764  7835  7836      1
  7765  7835  7837      2
  7766  7836  7841      1
  7767  7836  7842      1
  7768  7843  7844      1
  7769  7843  7848      1
  7770  7843  7849      1
  7771  7844  7845      1
  7772  7844  7850      1
  7773  7844  7853      1
  7774  7845  7846      1
  7775  7845  7847      2
  7776  7846  7851      1
  7777  7846  7852      1
  7778  7853  7854      1
  7779  7853  7858      1
  7780  7853  7859      1
  7781  7854  7855      1
  7782  7854  7860      1
  7783  7854  7863      1
  7784  7855  7856      1
  7785  7855  7857      2
  7786  7856  7861      1
  7787  7856  7862      1
  7788  7863  7864      1
  7789  7863  7868      1
  7790  7863  7869      1
  7791  7864  7865      1
  7792  7864  7870      1
  7793  7864  7873      1
  7794  7865  7866      1
  7795  7865  7867      2
  7796  7866  7871      1
  7797  7866  7872      1
  7798  7873  7874      1
  7799  7873  7878      1
  7800  7873  7879      1
  7801  7874  7875      1
  7802  7874  7880      1
  7803  7874  7883      1
  7804  7875  7876      1
  7805  7875  7877      2
  7806  7876  7881      1
  7807  7876  7882      1
  7808  7883  7884      1
  7809  7883  7888      1
  7810  7883  7889      1
  7811  7884  7885      1
  7812  7884  7890      1
  7813  7884  7893      1
  7814  7885  7886      1
  7815  7885  7887      2
  7816  7886  7891      1
  7817  7886  7892      1
  7818  7893  7894      1
  7819  7893  7898      1
  7820  7893  7899      1
  7821  7894  7895      1
  7822  7894  7900      1
  7823  7894  7903      1
  7824  7895  7896      1
  7825  7895  7897      2
  7826  7896  7901      1
  7827  7896  7902      1
  7828  7903  7904      1
  7829  7903  7908      1
  7830  7903  7909      1
  7831  7904  7905      1
  7832  7904  7910      1
  7833  7904  7913      1
  7834  7905  7906      1
  7835  7905  7907      2
  7836  7906  7911      1
  7837  7906  7912      1
  7838  7913  7914      1
  7839  7913  7918      1
  7840  7913  7919      1
  7841  7914  7915      1
  7842  7914  7920      1
  7843  7914  7923      1
  7844  7915  7916      1
  7845  7915  7917      2
  7846  7916  7921      1
  7847  7916  7922      1
  7848  7923  7924      1
  7849  7923  7928      1
  7850  7923  7929      1
  7851  7924  7925      1
  7852  7924  7930      1
  7853  7924  7933      1
  7854  7925  7926      1
  7855  7925  7927      2
  7856  7926  7931      1
  7857  7926  7932      1
  7858  7933  7934      1
  7859  7933  7938      1
  7860  7933  7939      1
  7861  7934  7935      1
  7862  7934  7940      1
  7863  7934  7943      1
  7864  7935  7936      1
  7865  7935  7937      2
  7866  7936  7941      1
  7867  7936  7942      1
  7868  7943  7944      1
  7869  7943  7948      1
  7870  7943  7949      1
  7871  7944  7945      1
  7872  7944  7950      1
  7873  7944  7953      1
  7874  7945  7946      1
  7875  7945  7947      2
  7876  7946  7951      1
  7877  7946  7952      1
  7878  7953  7954      1
  7879  7953  7958      1
  7880  7953  7959      1
  7881  7954  7955      1
  7882  7954  7960      1
  7883  7954  7963      1
  7884  7955  7956      1
  7885  7955  7957      2
  7886  7956  7961      1
  7887  7956  7962      1
  7888  7963  7964      1
  7889  7963  7968      1
  7890  7963  7969      1
  7891  7964  7965      1
  7892  7964  7970      1
  7893  7964  7973      1
  7894  7965  7966      1
  7895  7965  7967      2
  7896  7966  7971      1
  7897  7966  7972      1
  7898  7973  7974      1
  7899  7973  7978      1
  7900  7973  7979      1
  7901  7974  7975      1
  7902  7974  7980      1
  7903  7974  7983      1
  7904  7975  7976      1
  7905  7975  7977      2
  7906  7976  7981      1
  7907  7976  7982      1
  7908  7983  7984      1
  7909  7983  7988      1
  7910  7983  7989      1
  7911  7984  7985      1
  7912  7984  7990      1
  7913  7984  7993      1
  7914  7985  7986      1
  7915  7985  7987      2
  7916  7986  7991      1
  7917  7986  7992      1
  7918  7993  7994      1
  7919  7993  7998      1
  7920  7993  7999      1
  7921  7994  7995      1
  7922  7994  8000      1
  7923  7994  8003      1
  7924  7995  7996      1
  7925  7995  7997      2
  7926  7996  8001      1
  7927  7996  8002      1
  7928  8003  8004      1
  7929  8003  8008      1
  7930  8003  8009      1
  7931  8004  8005      1
  7932  8004  8010      1
  7933  8004  8013      1
  7934  8005  8006      1
  7935  8005  8007      2
  7936  8006  8011      1
  7937  8006  8012      1
  7938  8013  8014      1
  7939  8013  8018      1
  7940  8013  8019      1
  7941  8014  8015      1
  7942  8014  8020      1
  7943  8014  8023      1
  7944  8015  8016      1
  7945  8015  8017      2
  7946  8016  8021      1
  7947  8016  8022      1
  7948  8023  8024      1
  7949  8023  8028      1
  7950  8023  8029      1
  7951  8024  8025      1
  7952  8024  8030      1
  7953  8024  8033      1
  7954  8025  8026      1
  7955  8025  8027      2
  7956  8026  8031      1
  7957  8026  8032      1
  7958  8033  8034      1
  7959  8033  8038      1
  7960  8033  8039      1
  7961  8034  8035      1
  7962  8034  8040      1
  7963  8034  8043      1
  7964  8035  8036      1
  7965  8035  8037      2
  7966  8036  8041      1
  7967  8036  8042      1
  7968  8043  8044      1
  7969  8043  8048      1
  7970  8043  8049      1
  7971  8044  8045      1
  7972  8044  8050      1
  7973  8044  8053      1
  7974  8045  8046      1
  7975  8045  8047      2
  7976  8046  8051      1
  7977  8046  8052      1
  7978  8053  8054      1
  7979  8053  8058      1
  7980  8053  8059      1
  7981  8054  8055      1
  7982  8054  8060      1
  7983  8054  8063      1
  7984  8055  8056      1
  7985  8055  8057      2
  7986  8056  8061      1
  7987  8056  8062      1
  7988  8063  8064      1
  7989  8063  8068      1
  7990  8063  8069      1
  7991  8064  8065      1
  7992  8064  8070      1
  7993  8064  8073      1
  7994  8065  8066      1
  7995  8065  8067      2
  7996  8066  8071      1
  7997  8066  8072      1
  7998  8073  8074      1
  7999  8073  8078      1
  8000  8073  8079      1
  8001  8074  8075      1
  8002  8074  8080      1
  8003  8075  8076      1
  8004  8075  8077      2
  8005  8076  8081      1
  8006  8076  8082      1
  8007  8083  8084      1
  8008  8083  8088      1
  8009  8083  8089      1
  8010  8084  8085      1
  8011  8084  8090      1
  8012  8084  8093      1
  8013  8085  8086      1
  8014  8085  8087      2
  8015  8086  8091      1
  8016  8086  8092      1
  8017  8093  8094      1
  8018  8093  8098      1
  8019  8093  8099      1
  8020  8094  8095      1
  8021  8094  8100      1
  8022  8094  8103      1
  8023  8095  8096      1
  8024  8095  8097      2
  8025  8096  8101      1
  8026  8096  8102      1
  8027  8103  8104      1
  8028  8103  8108      1
  8029  8103  8109      1
  8030  8104  8105      1
  8031  8104  8110      1
  8032  8104  8113      1
  8033  8105  8106      1
  8034  8105  8107      2
  8035  8106  8111      1
  8036  8106  8112      1
  8037  8113  8114      1
  8038  8113  8118      1
  8039  8113  8119      1
  8040  8114  8115      1
  8041  8114  8120      1
  8042  8114  8123      1
  8043  8115  8116      1
  8044  8115  8117      2
  8045  8116  8121      1
  8046  8116  8122      1
  8047  8123  8124      1
  8048  8123  8128      1
  8049  8123  8129      1
  8050  8124  8125      1
  8051  8124  8130      1
  8052  8124  8133      1
  8053  8125  8126      1
  8054  8125  8127      2
  8055  8126  8131      1
  8056  8126  8132      1
  8057  8133  8134      1
  8058  8133  8138      1
  8059  8133  8139      1
  8060  8134  8135      1
  8061  8134  8140      1
  8062  8134  8143      1
  8063  8135  8136      1
  8064  8135  8137      2
  8065  8136  8141      1
  8066  8136  8142      1
  8067  8143  8144      1
  8068  8143  8148      1
  8069  8143  8149      1
  8070  8144  8145      1
  8071  8144  8150      1
  8072  8144  8153      1
  8073  8145  8146      1
  8074  8145  8147      2
  8075  8146  8151      1
  8076  8146  8152      1
  8077  8153  8154      1
  8078  8153  8158      1
  8079  8153  8159      1
  8080  8154  8155      1
  8081  8154  8160      1
  8082  8154  8163      1
  8083  8155  8156      1
  8084  8155  8157      2
  8085  8156  8161      1
  8086  8156  8162      1
  8087  8163  8164      1
  8088  8163  8168      1
  8089  8163  8169      1
  8090  8164  8165      1
  8091  8164  8170      1
  8092  8164  8173      1
  8093  8165  8166      1
  8094  8165  8167      2
  8095  8166  8171      1
  8096  8166  8172      1
  8097  8173  8174      1
  8098  8173  8178      1
  8099  8173  8179      1
  8100  8174  8175      1
  8101  8174  8180      1
  8102  8174  8183      1
  8103  8175  8176      1
  8104  8175  8177      2
  8105  8176  8181      1
  8106  8176  8182      1
  8107  8183  8184      1
  8108  8183  8188      1
  8109  8183  8189      1
  8110  8184  8185      1
  8111  8184  8190      1
  8112  8184  8193      1
  8113  8185  8186      1
  8114  8185  8187      2
  8115  8186  8191      1
  8116  8186  8192      1
  8117  8193  8194      1
  8118  8193  8198      1
  8119  8193  8199      1
  8120  8194  8195      1
  8121  8194  8200      1
  8122  8195  8196      1
  8123  8195  8197      2
  8124  8196  8201      1
  8125  8196  8202      1
  8126  8203  8204      1
  8127  8203  8208      1
  8128  8203  8209      1
  8129  8204  8205      1
  8130  8204  8210      1
  8131  8204  8213      1
  8132  8205  8206      1
  8133  8205  8207      2
  8134  8206  8211      1
  8135  8206  8212      1
  8136  8213  8214      1
  8137  8213  8218      1
  8138  8213  8219      1
  8139  8214  8215      1
  8140  8214  8220      1
  8141  8214  8223      1
  8142  8215  8216      1
  8143  8215  8217      2
  8144  8216  8221      1
  8145  8216  8222      1
  8146  8223  8224      1
  8147  8223  8228      1
  8148  8223  8229      1
  8149  8224  8225      1
  8150  8224  8230      1
  8151  8224  8233      1
  8152  8225  8226      1
  8153  8225  8227      2
  8154  8226  8231      1
  8155  8226  8232      1
  8156  8233  8234      1
  8157  8233  8238      1
  8158  8233  8239      1
  8159  8234  8235      1
  8160  8234  8240      1
  8161  8234  8243      1
  8162  8235  8236      1
  8163  8235  8237      2
  8164  8236  8241      1
  8165  8236  8242      1
  8166  8243  8244      1
  8167  8243  8248      1
  8168  8243  8249      1
  8169  8244  8245      1
  8170  8244  8250      1
  8171  8244  8253      1
  8172  8245  8246      1
  8173  8245  8247      2
  8174  8246  8251      1
  8175  8246  8252      1
  8176  8253  8254      1
  8177  8253  8258      1
  8178  8253  8259      1
  8179  8254  8255      1
  8180  8254  8260      1
  8181  8254  8263      1
  8182  8255  8256      1
  8183  8255  8257      2
  8184  8256  8261      1
  8185  8256  8262      1
  8186  8263  8264      1
  8187  8263  8268      1
  8188  8263  8269      1
  8189  8264  8265      1
  8190  8264  8270      1
  8191  8264  8273      1
  8192  8265  8266      1
  8193  8265  8267      2
  8194  8266  8271      1
  8195  8266  8272      1
  8196  8273  8274      1
  8197  8273  8278      1
  8198  8273  8279      1
  8199  8274  8275      1
  8200  8274  8280      1
  8201  8274  8283      1
  8202  8275  8276      1
  8203  8275  8277      2
  8204  8276  8281      1
  8205  8276  8282      1
  8206  8283  8284      1
  8207  8283  8288      1
  8208  8283  8289      1
  8209  8284  8285      1
  8210  8284  8290      1
  8211  8284  8293      1
  8212  8285  8286      1
  8213  8285  8287      2
  8214  8286  8291      1
  8215  8286  8292      1
  8216  8293  8294      1
  8217  8293  8298      1
  8218  8293  8299      1
  8219  8294  8295      1
  8220  8294  8300      1
  8221  8294  8303      1
  8222  8295  8296      1
  8223  8295  8297      2
  8224  8296  8301      1
  8225  8296  8302      1
  8226  8303  8304      1
  8227  8303  8308      1
  8228  8303  8309      1
  8229  8304  8305      1
  8230  8304  8310      1
  8231  8304  8313      1
  8232  8305  8306      1
  8233  8305  8307      2
  8234  8306  8311      1
  8235  8306  8312      1
  8236  8313  8314      1
  8237  8313  8318      1
  8238  8313  8319      1
  8239  8314  8315      1
  8240  8314  8320      1
  8241  8314  8323      1
  8242  8315  8316      1
  8243  8315  8317      2
  8244  8316  8321      1
  8245  8316  8322      1
  8246  8323  8324      1
  8247  8323  8328      1
  8248  8323  8329      1
  8249  8324  8325      1
  8250  8324  8330      1
  8251  8324  8333      1
  8252  8325  8326      1
  8253  8325  8327      2
  8254  8326  8331      1
  8255  8326  8332      1
  8256  8333  8334      1
  8257  8333  8338      1
  8258  8333  8339      1
  8259  8334  8335      1
  8260  8334  8340      1
  8261  8334  8343      1
  8262  8335  8336      1
  8263  8335  8337      2
  8264  8336  8341      1
  8265  8336  8342      1
  8266  8343  8344      1
  8267  8343  8348      1
  8268  8343  8349      1
  8269  8344  8345      1
  8270  8344  8350      1
  8271  8344  8353      1
  8272  8345  8346      1
  8273  8345  8347      2
  8274  8346  8351      1
  8275  8346  8352      1
  8276  8353  8354      1
  8277  8353  8358      1
  8278  8353  8359      1
  8279  8354  8355      1
  8280  8354  8360      1
  8281  8354  8363      1
  8282  8355  8356      1
  8283  8355  8357      2
  8284  8356  8361      1
  8285  8356  8362      1
  8286  8363  8364      1
  8287  8363  8368      1
  8288  8363  8369      1
  8289  8364  8365      1
  8290  8364  8370      1
  8291  8364  8373      1
  8292  8365  8366      1
  8293  8365  8367      2
  8294  8366  8371      1
  8295  8366  8372      1
  8296  8373  8374      1
  8297  8373  8378      1
  8298  8373  8379      1
  8299  8374  8375      1
  8300  8374  8380      1
  8301  8374  8383      1
  8302  8375  8376      1
  8303  8375  8377      2
  8304  8376  8381      1
  8305  8376  8382      1
  8306  8383  8384      1
  8307  8383  8388      1
  8308  8383  8389      1
  8309  8384  8385      1
  8310  8384  8390      1
  8311  8384  8393      1
  8312  8385  8386      1
  8313  8385  8387      2
  8314  8386  8391      1
  8315  8386  8392      1
  8316  8393  8394      1
  8317  8393  8398      1
  8318  8393  8399      1
  8319  8394  8395      1
  8320  8394  8400      1
  8321  8395  8396      1
  8322  8395  8397      2
  8323  8396  8401      1
  8324  8396  8402      1
  8325  8403  8404      1
  8326  8403  8408      1
  8327  8403  8409      1
  8328  8404  8405      1
  8329  8404  8410      1
  8330  8404  8413      1
  8331  8405  8406      1
  8332  8405  8407      2
  8333  8406  8411      1
  8334  8406  8412      1
  8335  8413  8414      1
  8336  8413  8418      1
  8337  8413  8419      1
  8338  8414  8415      1
  8339  8414  8420      1
  8340  8414  8423      1
  8341  8415  8416      1
  8342  8415  8417      2
  8343  8416  8421      1
  8344  8416  8422      1
  8345  8423  8424      1
  8346  8423  8428      1
  8347  8423  8429      1
  8348  8424  8425      1
  8349  8424  8430      1
  8350  8424  8433      1
  8351  8425  8426      1
  8352  8425  8427      2
  8353  8426  8431      1
  8354  8426  8432      1
  8355  8433  8434      1
  8356  8433  8438      1
  8357  8433  8439      1
  8358  8434  8435      1
  8359  8434  8440      1
  8360  8434  8443      1
  8361  8435  8436      1
  8362  8435  8437      2
  8363  8436  8441      1
  8364  8436  8442      1
  8365  8443  8444      1
  8366  8443  8448      1
  8367  8443  8449      1
  8368  8444  8445      1
  8369  8444  8450      1
  8370  8444  8453      1
  8371  8445  8446      1
  8372  8445  8447      2
  8373  8446  8451      1
  8374  8446  8452      1
  8375  8453  8454      1
  8376  8453  8458      1
  8377  8453  8459      1
  8378  8454  8455      1
  8379  8454  8460      1
  8380  8454  8463      1
  8381  8455  8456      1
  8382  8455  8457      2
  8383  8456  8461      1
  8384  8456  8462      1
  8385  8463  8464      1
  8386  8463  8468      1
  8387  8463  8469      1
  8388  8464  8465      1
  8389  8464  8470      1
  8390  8464  8473      1
  8391  8465  8466      1
  8392  8465  8467      2
  8393  8466  8471      1
  8394  8466  8472      1
  8395  8473  8474      1
  8396  8473  8478      1
  8397  8473  8479      1
  8398  8474  8475      1
  8399  8474  8480      1
  8400  8474  8483      1
  8401  8475  8476      1
  8402  8475  8477      2
  8403  8476  8481      1
  8404  8476  8482      1
  8405  8483  8484      1
  8406  8483  8488      1
  8407  8483  8489      1
  8408  8484  8485      1
  8409  8484  8490      1
  8410  8484  8493      1
  8411  8485  8486      1
  8412  8485  8487      2
  8413  8486  8491      1
  8414  8486  8492      1
  8415  8493  8494      1
  8416  8493  8498      1
  8417  8493  8499      1
  8418  8494  8495      1
  8419  8494  8500      1
  8420  8494  8503      1
  8421  8495  8496      1
  8422  8495  8497      2
  8423  8496  8501      1
  8424  8496  8502      1
  8425  8503  8504      1
  8426  8503  8508      1
  8427  8503  8509      1
  8428  8504  8505      1
  8429  8504  8510      1
  8430  8505  8506      1
  8431  8505  8507      2
  8432  8506  8511      1
  8433  8506  8512      1
  8434  8513  8514      1
  8435  8513  8518      1
  8436  8513  8519      1
  8437  8514  8515      1
  8438  8514  8520      1
  8439  8514  8523      1
  8440  8515  8516      1
  8441  8515  8517      2
  8442  8516  8521      1
  8443  8516  8522      1
  8444  8523  8524      1
  8445  8523  8528      1
  8446  8523  8529      1
  8447  8524  8525      1
  8448  8524  8530      1
  8449  8524  8533      1
  8450  8525  8526      1
  8451  8525  8527      2
  8452  8526  8531      1
  8453  8526  8532      1
  8454  8533  8534      1
  8455  8533  8538      1
  8456  8533  8539      1
  8457  8534  8535      1
  8458  8534  8540      1
  8459  8534  8543      1
  8460  8535  8536      1
  8461  8535  8537      2
  8462  8536  8541      1
  8463  8536  8542      1
  8464  8543  8544      1
  8465  8543  8548      1
  8466  8543  8549      1
  8467  8544  8545      1
  8468  8544  8550      1
  8469  8544  8553      1
  8470  8545  8546      1
  8471  8545  8547      2
  8472  8546  8551      1
  8473  8546  8552      1
  8474  8553  8554      1
  8475  8553  8558      1
  8476  8553  8559      1
  8477  8554  8555      1
  8478  8554  8560      1
  8479  8554  8563      1
  8480  8555  8556      1
  8481  8555  8557      2
  8482  8556  8561      1
  8483  8556  8562      1
  8484  8563  8564      1
  8485  8563  8568      1
  8486  8563  8569      1
  8487  8564  8565      1
  8488  8564  8570      1
  8489  8564  8573      1
  8490  8565  8566      1
  8491  8565  8567      2
  8492  8566  8571      1
  8493  8566  8572      1
  8494  8573  8574      1
  8495  8573  8578      1
  8496  8573  8579      1
  8497  8574  8575      1
  8498  8574  8580      1
  8499  8574  8583      1
  8500  8575  8576      1
  8501  8575  8577      2
  8502  8576  8581      1
  8503  8576  8582      1
  8504  8583  8584      1
  8505  8583  8588      1
  8506  8583  8589      1
  8507  8584  8585      1
  8508  8584  8590      1
  8509  8584  8593      1
  8510  8585  8586      1
  8511  8585  8587      2
  8512  8586  8591      1
  8513  8586  8592      1
  8514  8593  8594      1
  8515  8593  8598      1
  8516  8593  8599      1
  8517  8594  8595      1
  8518  8594  8600      1
  8519  8594  8603      1
  8520  8595  8596      1
  8521  8595  8597      2
  8522  8596  8601      1
  8523  8596  8602      1
  8524  8603  8604      1
  8525  8603  8608      1
  8526  8603  8609      1
  8527  8604  8605      1
  8528  8604  8610      1
  8529  8604  8613      1
  8530  8605  8606      1
  8531  8605  8607      2
  8532  8606  8611      1
  8533  8606  8612      1
  8534  8613  8614      1
  8535  8613  8618      1
  8536  8613  8619      1
  8537  8614  8615      1
  8538  8614  8620      1
  8539  8614  8623      1
  8540  8615  8616      1
  8541  8615  8617      2
  8542  8616  8621      1
  8543  8616  8622      1
  8544  8623  8624      1
  8545  8623  8628      1
  8546  8623  8629      1
  8547  8624  8625      1
  8548  8624  8630      1
  8549  8624  8633      1
  8550  8625  8626      1
  8551  8625  8627      2
  8552  8626  8631      1
  8553  8626  8632      1
  8554  8633  8634      1
  8555  8633  8638      1
  8556  8633  8639      1
  8557  8634  8635      1
  8558  8634  8640      1
  8559  8634  8643      1
  8560  8635  8636      1
  8561  8635  8637      2
  8562  8636  8641      1
  8563  8636  8642      1
  8564  8643  8644      1
  8565  8643  8648      1
  8566  8643  8649      1
  8567  8644  8645      1
  8568  8644  8650      1
  8569  8644  8653      1
  8570  8645  8646      1
  8571  8645  8647      2
  8572  8646  8651      1
  8573  8646  8652      1
  8574  8653  8654      1
  8575  8653  8658      1
  8576  8653  8659      1
  8577  8654  8655      1
  8578  8654  8660      1
  8579  8654  8663      1
  8580  8655  8656      1
  8581  8655  8657      2
  8582  8656  8661      1
  8583  8656  8662      1
  8584  8663  8664      1
  8585  8663  8668      1
  8586  8663  8669      1
  8587  8664  8665      1
  8588  8664  8670      1
  8589  8664  8673      1
  8590  8665  8666      1
  8591  8665  8667      2
  8592  8666  8671      1
  8593  8666  8672      1
  8594  8673  8674      1
  8595  8673  8678      1
  8596  8673  8679      1
  8597  8674  8675      1
  8598  8674  8680      1
  8599  8674  8683      1
  8600  8675  8676      1
  8601  8675  8677      2
  8602  8676  8681      1
  8603  8676  8682      1
  8604  8683  8684      1
  8605  8683  8688      1
  8606  8683  8689      1
  8607  8684  8685      1
  8608  8684  8690      1
  8609  8684  8693      1
  8610  8685  8686      1
  8611  8685  8687      2
  8612  8686  8691      1
  8613  8686  8692      1
  8614  8693  8694      1
  8615  8693  8698      1
  8616  8693  8699      1
  8617  8694  8695      1
  8618  8694  8700      1
  8619  8694  8703      1
  8620  8695  8696      1
  8621  8695  8697      2
  8622  8696  8701      1
  8623  8696  8702      1
  8624  8703  8704      1
  8625  8703  8708      1
  8626  8703  8709      1
  8627  8704  8705      1
  8628  8704  8710      1
  8629  8705  8706      1
  8630  8705  8707      2
  8631  8706  8711      1
  8632  8706  8712      1
  8633  8713  8714      1
  8634  8713  8718      1
  8635  8713  8719      1
  8636  8714  8715      1
  8637  8714  8720      1
  8638  8714  8723      1
  8639  8715  8716      1
  8640  8715  8717      2
  8641  8716  8721      1
  8642  8716  8722      1
  8643  8723  8724      1
  8644  8723  8728      1
  8645  8723  8729      1
  8646  8724  8725      1
  8647  8724  8730      1
  8648  8724  8733      1
  8649  8725  8726      1
  8650  8725  8727      2
  8651  8726  8731      1
  8652  8726  8732      1
  8653  8733  8734      1
  8654  8733  8738      1
  8655  8733  8739      1
  8656  8734  8735      1
  8657  8734  8740      1
  8658  8734  8743      1
  8659  8735  8736      1
  8660  8735  8737      2
  8661  8736  8741      1
  8662  8736  8742      1
  8663  8743  8744      1
  8664  8743  8748      1
  8665  8743  8749      1
  8666  8744  8745      1
  8667  8744  8750      1
  8668  8744  8753      1
  8669  8745  8746      1
  8670  8745  8747      2
  8671  8746  8751      1
  8672  8746  8752      1
  8673  8753  8754      1
  8674  8753  8758      1
  8675  8753  8759      1
  8676  8754  8755      1
  8677  8754  8760      1
  8678  8754  8763      1
  8679  8755  8756      1
  8680  8755  8757      2
  8681  8756  8761      1
  8682  8756  8762      1
  8683  8763  8764      1
  8684  8763  8768      1
  8685  8763  8769      1
  8686  8764  8765      1
  8687  8764  8770      1
  8688  8764  8773      1
  8689  8765  8766      1
  8690  8765  8767      2
  8691  8766  8771      1
  8692  8766  8772      1
  8693  8773  8774      1
  8694  8773  8778      1
  8695  8773  8779      1
  8696  8774  8775      1
  8697  8774  8780      1
  8698  8774  8783      1
  8699  8775  8776      1
  8700  8775  8777      2
  8701  8776  8781      1
  8702  8776  8782      1
  8703  8783  8784      1
  8704  8783  8788      1
  8705  8783  8789      1
  8706  8784  8785      1
  8707  8784  8790      1
  8708  8784  8793      1
  8709  8785  8786      1
  8710  8785  8787      2
  8711  8786  8791      1
  8712  8786  8792      1
  8713  8793  8794      1
  8714  8793  8798      1
  8715  8793  8799      1
  8716  8794  8795      1
  8717  8794  8800      1
  8718  8794  8803      1
  8719  8795  8796      1
  8720  8795  8797      2
  8721  8796  8801      1
  8722  8796  8802      1
  8723  8803  8804      1
  8724  8803  8808      1
  8725  8803  8809      1
  8726  8804  8805      1
  8727  8804  8810      1
  8728  8804  8813      1
  8729  8805  8806      1
  8730  8805  8807      2
  8731  8806  8811      1
  8732  8806  8812      1
  8733  8813  8814      1
  8734  8813  8818      1
  8735  8813  8819      1
  8736  8814  8815      1
  8737  8814  8820      1
  8738  8814  8823      1
  8739  8815  8816      1
  8740  8815  8817      2
  8741  8816  8821      1
  8742  8816  8822      1
  8743  8823  8824      1
  8744  8823  8828      1
  8745  8823  8829      1
  8746  8824  8825      1
  8747  8824  8830      1
  8748  8824  8833      1
  8749  8825  8826      1
  8750  8825  8827      2
  8751  8826  8831      1
  8752  8826  8832      1
  8753  8833  8834      1
  8754  8833  8838      1
  8755  8833  8839      1
  8756  8834  8835      1
  8757  8834  8840      1
  8758  8834  8843      1
  8759  8835  8836      1
  8760  8835  8837      2
  8761  8836  8841      1
  8762  8836  8842      1
  8763  8843  8844      1
  8764  8843  8848      1
  8765  8843  8849      1
  8766  8844  8845      1
  8767  8844  8850      1
  8768  8845  8846      1
  8769  8845  8847      2
  8770  8846  8851      1
  8771  8846  8852      1
  8772  8853  8854      1
  8773  8853  8858      1
  8774  8853  8859      1
  8775  8854  8855      1
  8776  8854  8860      1
  8777  8854  8863      1
  8778  8855  8856      1
  8779  8855  8857      2
  8780  8856  8861      1
  8781  8856  8862      1
  8782  8863  8864      1
  8783  8863  8868      1
  8784  8863  8869      1
  8785  8864  8865      1
  8786  8864  8870      1
  8787  8864  8873      1
  8788  8865  8866      1
  8789  8865  8867      2
  8790  8866  8871      1
  8791  8866  8872      1
  8792  8873  8874      1
  8793  8873  8878      1
  8794  8873  8879      1
  8795  8874  8875      1
  8796  8874  8880      1
  8797  8874  8883      1
  8798  8875  8876      1
  8799  8875  8877      2
  8800  8876  8881      1
  8801  8876  8882      1
  8802  8883  8884      1
  8803  8883  8888      1
  8804  8883  8889      1
  8805  8884  8885      1
  8806  8884  8890      1
  8807  8884  8893      1
  8808  8885  8886      1
  8809  8885  8887      2
  8810  8886  8891      1
  8811  8886  8892      1
  8812  8893  8894      1
  8813  8893  8898      1
  8814  8893  8899      1
  8815  8894  8895      1
  8816  8894  8900      1
  8817  8894  8903      1
  8818  8895  8896      1
  8819  8895  8897      2
  8820  8896  8901      1
  8821  8896  8902      1
  8822  8903  8904      1
  8823  8903  8908      1
  8824  8903  8909      1
  8825  8904  8905      1
  8826  8904  8910      1
  8827  8904  8913      1
  8828  8905  8906      1
  8829  8905  8907      2
  8830  8906  8911      1
  8831  8906  8912      1
  8832  8913  8914      1
  8833  8913  8918      1
  8834  8913  8919      1
  8835  8914  8915      1
  8836  8914  8920      1
  8837  8914  8923      1
  8838  8915  8916      1
  8839  8915  8917      2
  8840  8916  8921      1
  8841  8916  8922      1
  8842  8923  8924      1
  8843  8923  8928      1
  8844  8923  8929      1
  8845  8924  8925      1
  8846  8924  8930      1
  8847  8924  8933      1
  8848  8925  8926      1
  8849  8925  8927      2
  8850  8926  8931      1
  8851  8926  8932      1
  8852  8933  8934      1
  8853  8933  8938      1
  8854  8933  8939      1
  8855  8934  8935      1
  8856  8934  8940      1
  8857  8934  8943      1
  8858  8935  8936      1
  8859  8935  8937      2
  8860  8936  8941      1
  8861  8936  8942      1
  8862  8943  8944      1
  8863  8943  8948      1
  8864  8943  8949      1
  8865  8944  8945      1
  8866  8944  8950      1
  8867  8944  8953      1
  8868  8945  8946      1
  8869  8945  8947      2
  8870  8946  8951      1
  8871  8946  8952      1
  8872  8953  8954      1
  8873  8953  8958      1
  8874  8953  8959      1
  8875  8954  8955      1
  8876  8954  8960      1
  8877  8954  8963      1
  8878  8955  8956      1
  8879  8955  8957      2
  8880  8956  8961      1
  8881  8956  8962      1
  8882  8963  8964      1
  8883  8963  8968      1
  8884  8963  8969      1
  8885  8964  8965      1
  8886  8964  8970      1
  8887  8964  8973      1
  8888  8965  8966      1
  8889  8965  8967      2
  8890  8966  8971      1
  8891  8966  8972      1
  8892  8973  8974      1
  8893  8973  8978      1
  8894  8973  8979      1
  8895  8974  8975      1
  8896  8974  8980      1
  8897  8974  8983      1
  8898  8975  8976      1
  8899  8975  8977      2
  8900  8976  8981      1
  8901  8976  8982      1
  8902  8983  8984      1
  8903  8983  8988      1
  8904  8983  8989      1
  8905  8984  8985      1
  8906  8984  8990      1
  8907  8984  8993      1
  8908  8985  8986      1
  8909  8985  8987      2
  8910  8986  8991      1
  8911  8986  8992      1
  8912  8993  8994      1
  8913  8993  8998      1
  8914  8993  8999      1
  8915  8994  8995      1
  8916  8994  9000      1
  8917  8994  9003      1
  8918  8995  8996      1
  8919  8995  8997      2
  8920  8996  9001      1
  8921  8996  9002      1
  8922  9003  9004      1
  8923  9003  9008      1
  8924  9003  9009      1
  8925  9004  9005      1
  8926  9004  9010      1
  8927  9004  9013      1
  8928  9005  9006      1
  8929  9005  9007      2
  8930  9006  9011      1
  8931  9006  9012      1
  8932  9013  9014      1
  8933  9013  9018      1
  8934  9013  9019      1
  8935  9014  9015      1
  8936  9014  9020      1
  8937  9014  9023      1
  8938  9015  9016      1
  8939  9015  9017      2
  8940  9016  9021      1
  8941  9016  9022      1
  8942  9023  9024      1
  8943  9023  9028      1
  8944  9023  9029      1
  8945  9024  9025      1
  8946  9024  9030      1
  8947  9024  9033      1
  8948  9025  9026      1
  8949  9025  9027      2
  8950  9026  9031      1
  8951  9026  9032      1
  8952  9033  9034      1
  8953  9033  9038      1
  8954  9033  9039      1
  8955  9034  9035      1
  8956  9034  9040      1
  8957  9034  9043      1
  8958  9035  9036      1
  8959  9035  9037      2
  8960  9036  9041      1
  8961  9036  9042      1
  8962  9043  9044      1
  8963  9043  9048      1
  8964  9043  9049      1
  8965  9044  9045      1
  8966  9044  9050      1
  8967  9044  9053      1
  8968  9045  9046      1
  8969  9045  9047      2
  8970  9046  9051      1
  8971  9046  9052      1
  8972  9053  9054      1
  8973  9053  9058      1
  8974  9053  9059      1
  8975  9054  9055      1
  8976  9054  9060      1
  8977  9054  9063      1
  8978  9055  9056      1
  8979  9055  9057      2
  8980  9056  9061      1
  8981  9056  9062      1
  8982  9063  9064      1
  8983  9063  9068      1
  8984  9063  9069      1
  8985  9064  9065      1
  8986  9064  9070      1
  8987  9064  9073      1
  8988  9065  9066      1
  8989  9065  9067      2
  8990  9066  9071      1
  8991  9066  9072      1
  8992  9073  9074      1
  8993  9073  9078      1
  8994  9073  9079      1
  8995  9074  9075      1
  8996  9074  9080      1
  8997  9074  9083      1
  8998  9075  9076      1
  8999  9075  9077      2
  9000  9076  9081      1
  9001  9076  9082      1
  9002  9083  9084      1
  9003  9083  9088      1
  9004  9083  9089      1
  9005  9084  9085      1
  9006  9084  9090      1
  9007  9084  9093      1
  9008  9085  9086      1
  9009  9085  9087      2
  9010  9086  9091      1
  9011  9086  9092      1
  9012  9093  9094      1
  9013  9093  9098      1
  9014  9093  9099      1
  9015  9094  9095      1
  9016  9094  9100      1
  9017  9094  9103      1
  9018  9095  9096      1
  9019  9095  9097      2
  9020  9096  9101      1
  9021  9096  9102      1
  9022  9103  9104      1
  9023  9103  9108      1
  9024  9103  9109      1
  9025  9104  9105      1
  9026  9104  9110      1
  9027  9104  9113      1
  9028  9105  9106      1
  9029  9105  9107      2
  9030  9106  9111      1
  9031  9106  9112      1
  9032  9113  9114      1
  9033  9113  9118      1
  9034  9113  9119      1
  9035  9114  9115      1
  9036  9114  9120      1
  9037  9114  9123      1
  9038  9115  9116      1
  9039  9115  9117      2
  9040  9116  9121      1
  9041  9116  9122      1
  9042  9123  9124      1
  9043  9123  9128      1
  9044  9123  9129      1
  9045  9124  9125      1
  9046  9124  9130      1
  9047  9124  9133      1
  9048  9125  9126      1
  9049  9125  9127      2
  9050  9126  9131      1
  9051  9126  9132      1
  9052  9133  9134      1
  9053  9133  9138      1
  9054  9133  9139      1
  9055  9134  9135      1
  9056  9134  9140      1
  9057  9134  9143      1
  9058  9135  9136      1
  9059  9135  9137      2
  9060  9136  9141      1
  9061  9136  9142      1
  9062  9143  9144      1
  9063  9143  9148      1
  9064  9143  9149      1
  9065  9144  9145      1
  9066  9144  9150      1
  9067  9144  9153      1
  9068  9145  9146      1
  9069  9145  9147      2
  9070  9146  9151      1
  9071  9146  9152      1
  9072  9153  9154      1
  9073  9153  9158      1
  9074  9153  9159      1
  9075  9154  9155      1
  9076  9154  9160      1
  9077  9154  9163      1
  9078  9155  9156      1
  9079  9155  9157      2
  9080  9156  9161      1
  9081  9156  9162      1
  9082  9163  9164      1
  9083  9163  9168      1
  9084  9163  9169      1
  9085  9164  9165      1
  9086  9164  9170      1
  9087  9164  9173      1
  9088  9165  9166      1
  9089  9165  9167      2
  9090  9166  9171      1
  9091  9166  9172      1
  9092  9173  9174      1
  9093  9173  9178      1
  9094  9173  9179      1
  9095  9174  9175      1
  9096  9174  9180      1
  9097  9174  9183      1
  9098  9175  9176      1
  9099  9175  9177      2
  9100  9176  9181      1
  9101  9176  9182      1
  9102  9183  9184      1
  9103  9183  9188      1
  9104  9183  9189      1
  9105  9184  9185      1
  9106  9184  9190      1
  9107  9184  9193      1
  9108  9185  9186      1
  9109  9185  9187      2
  9110  9186  9191      1
  9111  9186  9192      1
  9112  9193  9194      1
  9113  9193  9198      1
  9114  9193  9199      1
  9115  9194  9195      1
  9116  9194  9200      1
  9117  9194  9203      1
  9118  9195  9196      1
  9119  9195  9197      2
  9120  9196  9201      1
  9121  9196  9202      1
  9122  9203  9204      1
  9123  9203  9208      1
  9124  9203  9209      1
  9125  9204  9205      1
  9126  9204  9210      1
  9127  9204  9213      1
  9128  9205  9206      1
  9129  9205  9207      2
  9130  9206  9211      1
  9131  9206  9212      1
  9132  9213  9214      1
  9133  9213  9218      1
  9134  9213  9219      1
  9135  9214  9215      1
  9136  9214  9220      1
  9137  9214  9223      1
  9138  9215  9216      1
  9139  9215  9217      2
  9140  9216  9221      1
  9141  9216  9222      1
  9142  9223  9224      1
  9143  9223  9228      1
  9144  9223  9229      1
  9145  9224  9225      1
  9146  9224  9230      1
  9147  9224  9233      1
  9148  9225  9226      1
  9149  9225  9227      2
  9150  9226  9231      1
  9151  9226  9232      1
  9152  9233  9234      1
  9153  9233  9238      1
  9154  9233  9239      1
  9155  9234  9235      1
  9156  9234  9240      1
  9157  9235  9236      1
  9158  9235  9237      2
  9159  9236  9241      1
  9160  9236  9242      1
  9161  9243  9244      1
  9162  9243  9248      1
  9163  9243  9249      1
  9164  9244  9245      1
  9165  9244  9250      1
  9166  9244  9253      1
  9167  9245  9246      1
  9168  9245  9247      2
  9169  9246  9251      1
  9170  9246  9252      1
  9171  9253  9254      1
  9172  9253  9258      1
  9173  9253  9259      1
  9174  9254  9255      1
  9175  9254  9260      1
  9176  9254  9263      1
  9177  9255  9256      1
  9178  9255  9257      2
  9179  9256  9261      1
  9180  9256  9262      1
  9181  9263  9264      1
  9182  9263  9268      1
  9183  9263  9269      1
  9184  9264  9265      1
  9185  9264  9270      1
  9186  9264  9273      1
  9187  9265  9266      1
  9188  9265  9267      2
  9189  9266  9271      1
  9190  9266  9272      1
  9191  9273  9274      1
  9192  9273  9278      1
  9193  9273  9279      1
  9194  9274  9275      1
  9195  9274  9280      1
  9196  9274  9283      1
  9197  9275  9276      1
  9198  9275  9277      2
  9199  9276  9281      1
  9200  9276  9282      1
  9201  9283  9284      1
  9202  9283  9288      1
  9203  9283  9289      1
  9204  9284  9285      1
  9205  9284  9290      1
  9206  9284  9293      1
  9207  9285  9286      1
  9208  9285  9287      2
  9209  9286  9291      1
  9210  9286  9292      1
  9211  9293  9294      1
  9212  9293  9298      1
  9213  9293  9299      1
  9214  9294  9295      1
  9215  9294  9300      1
  9216  9294  9303      1
  9217  9295  9296      1
  9218  9295  9297      2
  9219  9296  9301      1
  9220  9296  9302      1
  9221  9303  9304      1
  9222  9303  9308      1
  9223  9303  9309      1
  9224  9304  9305      1
  9225  9304  9310      1
  9226  9304  9313      1
  9227  9305  9306      1
  9228  9305  9307      2
  9229  9306  9311      1
  9230  9306  9312      1
  9231  9313  9314      1
  9232  9313  9318      1
  9233  9313  9319      1
  9234  9314  9315      1
  9235  9314  9320      1
  9236  9314  9323      1
  9237  9315  9316      1
  9238  9315  9317      2
  9239  9316  9321      1
  9240  9316  9322      1
  9241  9323  9324      1
  9242  9323  9328      1
  9243  9323  9329      1
  9244  9324  9325      1
  9245  9324  9330      1
  9246  9324  9333      1
  9247  9325  9326      1
  9248  9325  9327      2
  9249  9326  9331      1
  9250  9326  9332      1
  9251  9333  9334      1
  9252  9333  9338      1
  9253  9333  9339      1
  9254  9334  9335      1
  9255  9334  9340      1
  9256  9334  9343      1
  9257  9335  9336      1
  9258  9335  9337      2
  9259  9336  9341      1
  9260  9336  9342      1
  9261  9343  9344      1
  9262  9343  9348      1
  9263  9343  9349      1
  9264  9344  9345      1
  9265  9344  9350      1
  9266  9344  9353      1
  9267  9345  9346      1
  9268  9345  9347      2
  9269  9346  9351      1
  9270  9346  9352      1
  9271  9353  9354      1
  9272  9353  9358      1
  9273  9353  9359      1
  9274  9354  9355      1
  9275  9354  9360      1
  9276  9354  9363      1
  9277  9355  9356      1
  9278  9355  9357      2
  9279  9356  9361      1
  9280  9356  9362      1
  9281  9363  9364      1
  9282  9363  9368      1
  9283  9363  9369      1
  9284  9364  9365      1
  9285  9364  9370      1
  9286  9364  9373      1
  9287  9365  9366      1
  9288  9365  9367      2
  9289  9366  9371      1
  9290  9366  9372      1
  9291  9373  9374      1
  9292  9373  9378      1
  9293  9373  9379      1
  9294  9374  9375      1
  9295  9374  9380      1
  9296  9374  9383      1
  9297  9375  9376      1
  9298  9375  9377      2
  9299  9376  9381      1
  9300  9376  9382      1
  9301  9383  9384      1
  9302  9383  9388      1
  9303  9383  9389      1
  9304  9384  9385      1
  9305  9384  9390      1
  9306  9384  9393      1
  9307  9385  9386      1
  9308  9385  9387      2
  9309  9386  9391      1
  9310  9386  9392      1
  9311  9393  9394      1
  9312  9393  9398      1
  9313  9393  9399      1
  9314  9394  9395      1
  9315  9394  9400      1
  9316  9395  9396      1
  9317  9395  9397      2
  9318  9396  9401      1
  9319  9396  9402      1
  9320  9403  9404      1
  9321  9403  9408      1
  9322  9403  9409      1
  9323  9404  9405      1
  9324  9404  9410      1
  9325  9404  9413      1
  9326  9405  9406      1
  9327  9405  9407      2
  9328  9406  9411      1
  9329  9406  9412      1
  9330  9413  9414      1
  9331  9413  9418      1
  9332  9413  9419      1
  9333  9414  9415      1
  9334  9414  9420      1
  9335  9414  9423      1
  9336  9415  9416      1
  9337  9415  9417      2
  9338  9416  9421      1
  9339  9416  9422      1
  9340  9423  9424      1
  9341  9423  9428      1
  9342  9423  9429      1
  9343  9424  9425      1
  9344  9424  9430      1
  9345  9424  9433      1
  9346  9425  9426      1
  9347  9425  9427      2
  9348  9426  9431      1
  9349  9426  9432      1
  9350  9433  9434      1
  9351  9433  9438      1
  9352  9433  9439      1
  9353  9434  9435      1
  9354  9434  9440      1
  9355  9434  9443      1
  9356  9435  9436      1
  9357  9435  9437      2
  9358  9436  9441      1
  9359  9436  9442      1
  9360  9443  9444      1
  9361  9443  9448      1
  9362  9443  9449      1
  9363  9444  9445      1
  9364  9444  9450      1
  9365  9444  9453      1
  9366  9445  9446      1
  9367  9445  9447      2
  9368  9446  9451      1
  9369  9446  9452      1
  9370  9453  9454      1
  9371  9453  9458      1
  9372  9453  9459      1
  9373  9454  9455      1
  9374  9454  9460      1
  9375  9454  9463      1
  9376  9455  9456      1
  9377  9455  9457      2
  9378  9456  9461      1
  9379  9456  9462      1
  9380  9463  9464      1
  9381  9463  9468      1
  9382  9463  9469      1
  9383  9464  9465      1
  9384  9464  9470      1
  9385  9464  9473      1
  9386  9465  9466      1
  9387  9465  9467      2
  9388  9466  9471      1
  9389  9466  9472      1
  9390  9473  9474      1
  9391  9473  9478      1
  9392  9473  9479      1
  9393  9474  9475      1
  9394  9474  9480      1
  9395  9474  9483      1
  9396  9475  9476      1
  9397  9475  9477      2
  9398  9476  9481      1
  9399  9476  9482      1
  9400  9483  9484      1
  9401  9483  9488      1
  9402  9483  9489      1
  9403  9484  9485      1
  9404  9484  9490      1
  9405  9484  9493      1
  9406  9485  9486      1
  9407  9485  9487      2
  9408  9486  9491      1
  9409  9486  9492      1
  9410  9493  9494      1
  9411  9493  9498      1
  9412  9493  9499      1
  9413  9494  9495      1
  9414  9494  9500      1
  9415  9494  9503      1
  9416  9495  9496      1
  9417  9495  9497      2
  9418  9496  9501      1
  9419  9496  9502      1
  9420  9503  9504      1
  9421  9503  9508      1
  9422  9503  9509      1
  9423  9504  9505      1
  9424  9504  9510      1
  9425  9504  9513      1
  9426  9505  9506      1
  9427  9505  9507      2
  9428  9506  9511      1
  9429  9506  9512      1
  9430  9513  9514      1
  9431  9513  9518      1
  9432  9513  9519      1
  9433  9514  9515      1
  9434  9514  9520      1
  9435  9514  9523      1
  9436  9515  9516      1
  9437  9515  9517      2
  9438  9516  9521      1
  9439  9516  9522      1
  9440  9523  9524      1
  9441  9523  9528      1
  9442  9523  9529      1
  9443  9524  9525      1
  9444  9524  9530      1
  9445  9524  9533      1
  9446  9525  9526      1
  9447  9525  9527      2
  9448  9526  9531      1
  9449  9526  9532      1
  9450  9533  9534      1
  9451  9533  9538      1
  9452  9533  9539      1
  9453  9534  9535      1
  9454  9534  9540      1
  9455  9535  9536      1
  9456  9535  9537      2
  9457  9536  9541      1
  9458  9536  9542      1
  9459  9543  9544      1
  9460  9543  9548      1
  9461  9543  9549      1
  9462  9544  9545      1
  9463  9544  9550      1
  9464  9544  9553      1
  9465  9545  9546      1
  9466  9545  9547      2
  9467  9546  9551      1
  9468  9546  9552      1
  9469  9553  9554      1
  9470  9553  9558      1
  9471  9553  9559      1
  9472  9554  9555      1
  9473  9554  9560      1
  9474  9554  9563      1
  9475  9555  9556      1
  9476  9555  9557      2
  9477  9556  9561      1
  9478  9556  9562      1
  9479  9563  9564      1
  9480  9563  9568      1
  9481  9563  9569      1
  9482  9564  9565      1
  9483  9564  9570      1
  9484  9564  9573      1
  9485  9565  9566      1
  9486  9565  9567      2
  9487  9566  9571      1
  9488  9566  9572      1
  9489  9573  9574      1
  9490  9573  9578      1
  9491  9573  9579      1
  9492  9574  9575      1
  9493  9574  9580      1
  9494  9574  9583      1
  9495  9575  9576      1
  9496  9575  9577      2
  9497  9576  9581      1
  9498  9576  9582      1
  9499  9583  9584      1
  9500  9583  9588      1
  9501  9583  9589      1
  9502  9584  9585      1
  9503  9584  9590      1
  9504  9584  9593      1
  9505  9585  9586      1
  9506  9585  9587      2
  9507  9586  9591      1
  9508  9586  9592      1
  9509  9593  9594      1
  9510  9593  9598      1
  9511  9593  9599      1
  9512  9594  9595      1
  9513  9594  9600      1
  9514  9594  9603      1
  9515  9595  9596      1
  9516  9595  9597      2
  9517  9596  9601      1
  9518  9596  9602      1
  9519  9603  9604      1
  9520  9603  9608      1
  9521  9603  9609      1
  9522  9604  9605      1
  9523  9604  9610      1
  9524  9605  9606      1
  9525  9605  9607      2
  9526  9606  9611      1
  9527  9606  9612      1
  9528  9613  9614      1
  9529  9613  9618      1
  9530  9613  9619      1
  9531  9614  9615      1
  9532  9614  9620      1
  9533  9614  9623      1
  9534  9615  9616      1
  9535  9615  9617      2
  9536  9616  9621      1
  9537  9616  9622      1
  9538  9623  9624      1
  9539  9623  9628      1
  9540  9623  9629      1
  9541  9624  9625      1
  9542  9624  9630      1
  9543  9624  9633      1
  9544  9625  9626      1
  9545  9625  9627      2
  9546  9626  9631      1
  9547  9626  9632      1
  9548  9633  9634      1
  9549  9633  9638      1
  9550  9633  9639      1
  9551  9634  9635      1
  9552  9634  9640      1
  9553  9634  9643      1
  9554  9635  9636      1
  9555  9635  9637      2
  9556  9636  9641      1
  9557  9636  9642      1
  9558  9643  9644      1
  9559  9643  9648      1
  9560  9643  9649      1
  9561  9644  9645      1
  9562  9644  9650      1
  9563  9644  9653      1
  9564  9645  9646      1
  9565  9645  9647      2
  9566  9646  9651      1
  9567  9646  9652      1
  9568  9653  9654      1
  9569  9653  9658      1
  9570  9653  9659      1
  9571  9654  9655      1
  9572  9654  9660      1
  9573  9654  9663      1
  9574  9655  9656      1
  9575  9655  9657      2
  9576  9656  9661      1
  9577  9656  9662      1
  9578  9663  9664      1
  9579  9663  9668      1
  9580  9663  9669      1
  9581  9664  9665      1
  9582  9664  9670      1
  9583  9664  9673      1
  9584  9665  9666      1
  9585  9665  9667      2
  9586  9666  9671      1
  9587  9666  9672      1
  9588  9673  9674      1
  9589  9673  9678      1
  9590  9673  9679      1
  9591  9674  9675      1
  9592  9674  9680      1
  9593  9674  9683      1
  9594  9675  9676      1
  9595  9675  9677      2
  9596  9676  9681      1
  9597  9676  9682      1
  9598  9683  9684      1
  9599  9683  9688      1
  9600  9683  9689      1
  9601  9684  9685      1
  9602  9684  9690      1
  9603  9684  9693      1
  9604  9685  9686      1
  9605  9685  9687      2
  9606  9686  9691      1
  9607  9686  9692      1
  9608  9693  9694      1
  9609  9693  9698      1
  9610  9693  9699      1
  9611  9694  9695      1
  9612  9694  9700      1
  9613  9694  9703      1
  9614  9695  9696      1
  9615  9695  9697      2
  9616  9696  9701      1
  9617  9696  9702      1
  9618  9703  9704      1
  9619  9703  9708      1
  9620  9703  9709      1
  9621  9704  9705      1
  9622  9704  9710      1
  9623  9704  9713      1
  9624  9705  9706      1
  9625  9705  9707      2
  9626  9706  9711      1
  9627  9706  9712      1
  9628  9713  9714      1
  9629  9713  9718      1
  9630  9713  9719      1
  9631  9714  9715      1
  9632  9714  9720      1
  9633  9714  9723      1
  9634  9715  9716      1
  9635  9715  9717      2
  9636  9716  9721      1
  9637  9716  9722      1
  9638  9723  9724      1
  9639  9723  9728      1
  9640  9723  9729      1
  9641  9724  9725      1
  9642  9724  9730      1
  9643  9724  9733      1
  9644  9725  9726      1
  9645  9725  9727      2
  9646  9726  9731      1
  9647  9726  9732      1
  9648  9733  9734      1
  9649  9733  9738      1
  9650  9733  9739      1
  9651  9734  9735      1
  9652  9734  9740      1
  9653  9734  9743      1
  9654  9735  9736      1
  9655  9735  9737      2
  9656  9736  9741      1
  9657  9736  9742      1
  9658  9743  9744      1
  9659  9743  9748      1
  9660  9743  9749      1
  9661  9744  9745      1
  9662  9744  9750      1
  9663  9744  9753      1
  9664  9745  9746      1
  9665  9745  9747      2
  9666  9746  9751      1
  9667  9746  9752      1
  9668  9753  9754      1
  9669  9753  9758      1
  9670  9753  9759      1
  9671  9754  9755      1
  9672  9754  9760      1
  9673  9754  9763      1
  9674  9755  9756      1
  9675  9755  9757      2
  9676  9756  9761      1
  9677  9756  9762      1
  9678  9763  9764      1
  9679  9763  9768      1
  9680  9763  9769      1
  9681  9764  9765      1
  9682  9764  9770      1
  9683  9764  9773      1
  9684  9765  9766      1
  9685  9765  9767      2
  9686  9766  9771      1
  9687  9766  9772      1
  9688  9773  9774      1
  9689  9773  9778      1
  9690  9773  9779      1
  9691  9774  9775      1
  9692  9774  9780      1
  9693  9774  9783      1
  9694  9775  9776      1
  9695  9775  9777      2
  9696  9776  9781      1
  9697  9776  9782      1
  9698  9783  9784      1
  9699  9783  9788      1
  9700  9783  9789      1
  9701  9784  9785      1
  9702  9784  9790      1
  9703  9784  9793      1
  9704  9785  9786      1
  9705  9785  9787      2
  9706  9786  9791      1
  9707  9786  9792      1
  9708  9793  9794      1
  9709  9793  9798      1
  9710  9793  9799      1
  9711  9794  9795      1
  9712  9794  9800      1
  9713  9794  9803      1
  9714  9795  9796      1
  9715  9795  9797      2
  9716  9796  9801      1
  9717  9796  9802      1
  9718  9803  9804      1
  9719  9803  9808      1
  9720  9803  9809      1
  9721  9804  9805      1
  9722  9804  9810      1
  9723  9804  9813      1
  9724  9805  9806      1
  9725  9805  9807      2
  9726  9806  9811      1
  9727  9806  9812      1
  9728  9813  9814      1
  9729  9813  9818      1
  9730  9813  9819      1
  9731  9814  9815      1
  9732  9814  9820      1
  9733  9814  9823      1
  9734  9815  9816      1
  9735  9815  9817      2
  9736  9816  9821      1
  9737  9816  9822      1
  9738  9823  9824      1
  9739  9823  9828      1
  9740  9823  9829      1
  9741  9824  9825      1
  9742  9824  9830      1
  9743  9824  9833      1
  9744  9825  9826      1
  9745  9825  9827      2
  9746  9826  9831      1
  9747  9826  9832      1
  9748  9833  9834      1
  9749  9833  9838      1
  9750  9833  9839      1
  9751  9834  9835      1
  9752  9834  9840      1
  9753  9834  9843      1
  9754  9835  9836      1
  9755  9835  9837      2
  9756  9836  9841      1
  9757  9836  9842      1
  9758  9843  9844      1
  9759  9843  9848      1
  9760  9843  9849      1
  9761  9844  9845      1
  9762  9844  9850      1
  9763  9844  9853      1
  9764  9845  9846      1
  9765  9845  9847      2
  9766  9846  9851      1
  9767  9846  9852      1
  9768  9853  9854      1
  9769  9853  9858      1
  9770  9853  9859      1
  9771  9854  9855      1
  9772  9854  9860      1
  9773  9854  9863      1
  9774  9855  9856      1
  9775  9855  9857      2
  9776  9856  9861      1
  9777  9856  9862      1
  9778  9863  9864      1
  9779  9863  9868      1
  9780  9863  9869      1
  9781  9864  9865      1
  9782  9864  9870      1
  9783  9864  9873      1
  9784  9865  9866      1
  9785  9865  9867      2
  9786  9866  9871      1
  9787  9866  9872      1
  9788  9873  9874      1
  9789  9873  9878      1
  9790  9873  9879      1
  9791  9874  9875      1
  9792  9874  9880      1
  9793  9874  9883      1
  9794  9875  9876      1
  9795  9875  9877      2
  9796  9876  9881      1
  9797  9876  9882      1
  9798  9883  9884      1
  9799  9883  9888      1
  9800  9883  9889      1
  9801  9884  9885      1
  9802  9884  9890      1
  9803  9884  9893      1
  9804  9885  9886      1
  9805  9885  9887      2
  9806  9886  9891      1
  9807  9886  9892      1
  9808  9893  9894      1
  9809  9893  9898      1
  9810  9893  9899      1
  9811  9894  9895      1
  9812  9894  9900      1
  9813  9895  9896      1
  9814  9895  9897      2
  9815  9896  9901      1
  9816  9896  9902      1
  9817  9903  9904      1
  9818  9903  9908      1
  9819  9903  9909      1
  9820  9904  9905      1
  9821  9904  9910      1
  9822  9904  9913      1
  9823  9905  9906      1
  9824  9905  9907      2
  9825  9906  9911      1
  9826  9906  9912      1
  9827  9913  9914      1
  9828  9913  9918      1
  9829  9913  9919      1
  9830  9914  9915      1
  9831  9914  9920      1
  9832  9914  9923      1
  9833  9915  9916      1
  9834  9915  9917      2
  9835  9916  9921      1
  9836  9916  9922      1
  9837  9923  9924      1
  9838  9923  9928      1
  9839  9923  9929      1
  9840  9924  9925      1
  9841  9924  9930      1
  9842  9924  9933      1
  9843  9925  9926      1
  9844  9925  9927      2
  9845  9926  9931      1
  9846  9926  9932      1
  9847  9933  9934      1
  9848  9933  9938      1
  9849  9933  9939      1
  9850  9934  9935      1
  9851  9934  9940      1
  9852  9934  9943      1
  9853  9935  9936      1
  9854  9935  9937      2
  9855  9936  9941      1
  9856  9936  9942      1
  9857  9943  9944      1
  9858  9943  9948      1
  9859  9943  9949      1
  9860  9944  9945      1
  9861  9944  9950      1
  9862  9944  9953      1
  9863  9945  9946      1
  9864  9945  9947      2
  9865  9946  9951      1
  9866  9946  9952      1
  9867  9953  9954      1
  9868  9953  9958      1
  9869  9953  9959      1
  9870  9954  9955      1
  9871  9954  9960      1
  9872  9954  9963      1
  9873  9955  9956      1
  9874  9955  9957      2
  9875  9956  9961      1
  9876  9956  9962      1
  9877  9963  9964      1
  9878  9963  9968      1
  9879  9963  9969      1
  9880  9964  9965      1
  9881  9964  9970      1
  9882  9964  9973      1
  9883  9965  9966      1
  9884  9965  9967      2
  9885  9966  9971      1
  9886  9966  9972      1
  9887  9973  9974      1
  9888  9973  9978      1
  9889  9973  9979      1
  9890  9974  9975      1
  9891  9974  9980      1
  9892  9974  9983      1
  9893  9975  9976      1
  9894  9975  9977      2
  9895  9976  9981      1
  9896  9976  9982      1
  9897  9983  9984      1
  9898  9983  9988      1
  9899  9983  9989      1
  9900  9984  9985      1
  9901  9984  9990      1
  9902  9984  9993      1
  9903  9985  9986      1
  9904  9985  9987      2
  9905  9986  9991      1
  9906  9986  9992      1
  9907  9993  9994      1
  9908  9993  9998      1
  9909  9993  9999      1
  9910  9994  9995      1
  9911  9994 10000      1
  9912  9994 10003      1
  9913  9995  9996      1
  9914  9995  9997      2
  9915  9996 10001      1
  9916  9996 10002      1
  9917 10003 10004      1
  9918 10003 10008      1
  9919 10003 10009      1
  9920 10004 10005      1
  9921 10004 10010      1
  9922 10004 10013      1
  9923 10005 10006      1
  9924 10005 10007      2
  9925 10006 10011      1
  9926 10006 10012      1
  9927 10013 10014      1
  9928 10013 10018      1
  9929 10013 10019      1
  9930 10014 10015      1
  9931 10014 10020      1
  9932 10014 10023      1
  9933 10015 10016      1
  9934 10015 10017      2
  9935 10016 10021      1
  9936 10016 10022      1
  9937 10023 10024      1
  9938 10023 10028      1
  9939 10023 10029      1
  9940 10024 10025      1
  9941 10024 10030      1
  9942 10024 10033      1
  9943 10025 10026      1
  9944 10025 10027      2
  9945 10026 10031      1
  9946 10026 10032      1
  9947 10033 10034      1
  9948 10033 10038      1
  9949 10033 10039      1
  9950 10034 10035      1
  9951 10034 10040      1
  9952 10034 10043      1
  9953 10035 10036      1
  9954 10035 10037      2
  9955 10036 10041      1
  9956 10036 10042      1
  9957 10043 10044      1
  9958 10043 10048      1
  9959 10043 10049      1
  9960 10044 10045      1
  9961 10044 10050      1
  9962 10045 10046      1
  9963 10045 10047      2
  9964 10046 10051      1
  9965 10046 10052      1
  9966 10053 10054      1
  9967 10053 10058      1
  9968 10053 10059      1
  9969 10054 10055      1
  9970 10054 10060      1
  9971 10054 10063      1
  9972 10055 10056      1
  9973 10055 10057      2
  9974 10056 10061      1
  9975 10056 10062      1
  9976 10063 10064      1
  9977 10063 10068      1
  9978 10063 10069      1
  9979 10064 10065      1
  9980 10064 10070      1
  9981 10064 10073      1
  9982 10065 10066      1
  9983 10065 10067      2
  9984 10066 10071      1
  9985 10066 10072      1
  9986 10073 10074      1
  9987 10073 10078      1
  9988 10073 10079      1
  9989 10074 10075      1
  9990 10074 10080      1
  9991 10074 10083      1
  9992 10075 10076      1
  9993 10075 10077      2
  9994 10076 10081      1
  9995 10076 10082      1
  9996 10083 10084      1
  9997 10083 10088      1
  9998 10083 10089      1
  9999 10084 10085      1
 10000 10084 10090      1
 10001 10084 10093      1
 10002 10085 10086      1
 10003 10085 10087      2
 10004 10086 10091      1
 10005 10086 10092      1
 10006 10093 10094      1
 10007 10093 10098      1
 10008 10093 10099      1
 10009 10094 10095      1
 10010 10094 10100      1
 10011 10094 10103      1
 10012 10095 10096      1
 10013 10095 10097      2
 10014 10096 10101      1
 10015 10096 10102      1
 10016 10103 10104      1
 10017 10103 10108      1
 10018 10103 10109      1
 10019 10104 10105      1
 10020 10104 10110      1
 10021 10104 10113      1
 10022 10105 10106      1
 10023 10105 10107      2
 10024 10106 10111      1
 10025 10106 10112      1
 10026 10113 10114      1
 10027 10113 10118      1
 10028 10113 10119      1
 10029 10114 10115      1
 10030 10114 10120      1
 10031 10114 10123      1
 10032 10115 10116      1
 10033 10115 10117      2
 10034 10116 10121      1
 10035 10116 10122      1
 10036 10123 10124      1
 10037 10123 10128      1
 10038 10123 10129      1
 10039 10124 10125      1
 10040 10124 10130      1
 10041 10124 10133      1
 10042 10125 10126      1
 10043 10125 10127      2
 10044 10126 10131      1
 10045 10126 10132      1
 10046 10133 10134      1
 10047 10133 10138      1
 10048 10133 10139      1
 10049 10134 10135      1
 10050 10134 10140      1
 10051 10134 10143      1
 10052 10135 10136      1
 10053 10135 10137      2
 10054 10136 10141      1
 10055 10136 10142      1
 10056 10143 10144      1
 10057 10143 10148      1
 10058 10143 10149      1
 10059 10144 10145      1
 10060 10144 10150      1
 10061 10145 10146      1
 10062 10145 10147      2
 10063 10146 10151      1
 10064 10146 10152      1
 10065 10153 10154      1
 10066 10153 10158      1
 10067 10153 10159      1
 10068 10154 10155      1
 10069 10154 10160      1
 10070 10154 10163      1
 10071 10155 10156      1
 10072 10155 10157      2
 10073 10156 10161      1
 10074 10156 10162      1
 10075 10163 10164      1
 10076 10163 10168      1
 10077 10163 10169      1
 10078 10164 10165      1
 10079 10164 10170      1
 10080 10164 10173      1
 10081 10165 10166      1
 10082 10165 10167      2
 10083 10166 10171      1
 10084 10166 10172      1
 10085 10173 10174      1
 10086 10173 10178      1
 10087 10173 10179      1
 10088 10174 10175      1
 10089 10174 10180      1
 10090 10174 10183      1
 10091 10175 10176      1
 10092 10175 10177      2
 10093 10176 10181      1
 10094 10176 10182      1
 10095 10183 10184      1
 10096 10183 10188      1
 10097 10183 10189      1
 10098 10184 10185      1
 10099 10184 10190      1
 10100 10184 10193      1
 10101 10185 10186      1
 10102 10185 10187      2
 10103 10186 10191      1
 10104 10186 10192      1
 10105 10193 10194      1
 10106 10193 10198      1
 10107 10193 10199      1
 10108 10194 10195      1
 10109 10194 10200      1
 10110 10194 10203      1
 10111 10195 10196      1
 10112 10195 10197      2
 10113 10196 10201      1
 10114 10196 10202      1
 10115 10203 10204      1
 10116 10203 10208      1
 10117 10203 10209      1
 10118 10204 10205      1
 10119 10204 10210      1
 10120 10204 10213      1
 10121 10205 10206      1
 10122 10205 10207      2
 10123 10206 10211      1
 10124 10206 10212      1
 10125 10213 10214      1
 10126 10213 10218      1
 10127 10213 10219      1
 10128 10214 10215      1
 10129 10214 10220      1
 10130 10214 10223      1
 10131 10215 10216      1
 10132 10215 10217      2
 10133 10216 10221      1
 10134 10216 10222      1
 10135 10223 10224      1
 10136 10223 10228      1
 10137 10223 10229      1
 10138 10224 10225      1
 10139 10224 10230      1
 10140 10224 10233      1
 10141 10225 10226      1
 10142 10225 10227      2
 10143 10226 10231      1
 10144 10226 10232      1
 10145 10233 10234      1
 10146 10233 10238      1
 10147 10233 10239      1
 10148 10234 10235      1
 10149 10234 10240      1
 10150 10234 10243      1
 10151 10235 10236      1
 10152 10235 10237      2
 10153 10236 10241      1
 10154 10236 10242      1
 10155 10243 10244      1
 10156 10243 10248      1
 10157 10243 10249      1
 10158 10244 10245      1
 10159 10244 10250      1
 10160 10244 10253      1
 10161 10245 10246      1
 10162 10245 10247      2
 10163 10246 10251      1
 10164 10246 10252      1
 10165 10253 10254      1
 10166 10253 10258      1
 10167 10253 10259      1
 10168 10254 10255      1
 10169 10254 10260      1
 10170 10254 10263      1
 10171 10255 10256      1
 10172 10255 10257      2
 10173 10256 10261      1
 10174 10256 10262      1
 10175 10263 10264      1
 10176 10263 10268      1
 10177 10263 10269      1
 10178 10264 10265      1
 10179 10264 10270      1
 10180 10264 10273      1
 10181 10265 10266      1
 10182 10265 10267      2
 10183 10266 10271      1
 10184 10266 10272      1
 10185 10273 10274      1
 10186 10273 10278      1
 10187 10273 10279      1
 10188 10274 10275      1
 10189 10274 10280      1
 10190 10274 10283      1
 10191 10275 10276      1
 10192 10275 10277      2
 10193 10276 10281      1
 10194 10276 10282      1
 10195 10283 10284      1
 10196 10283 10288      1
 10197 10283 10289      1
 10198 10284 10285      1
 10199 10284 10290      1
 10200 10284 10293      1
 10201 10285 10286      1
 10202 10285 10287      2
 10203 10286 10291      1
 10204 10286 10292      1
 10205 10293 10294      1
 10206 10293 10298      1
 10207 10293 10299      1
 10208 10294 10295      1
 10209 10294 10300      1
 10210 10294 10303      1
 10211 10295 10296      1
 10212 10295 10297      2
 10213 10296 10301      1
 10214 10296 10302      1
 10215 10303 10304      1
 10216 10303 10308      1
 10217 10303 10309      1
 10218 10304 10305      1
 10219 10304 10310      1
 10220 10304 10313      1
 10221 10305 10306      1
 10222 10305 10307      2
 10223 10306 10311      1
 10224 10306 10312      1
 10225 10313 10314      1
 10226 10313 10318      1
 10227 10313 10319      1
 10228 10314 10315      1
 10229 10314 10320      1
 10230 10314 10323      1
 10231 10315 10316      1
 10232 10315 10317      2
 10233 10316 10321      1
 10234 10316 10322      1
 10235 10323 10324      1
 10236 10323 10328      1
 10237 10323 10329      1
 10238 10324 10325      1
 10239 10324 10330      1
 10240 10324 10333      1
 10241 10325 10326      1
 10242 10325 10327      2
 10243 10326 10331      1
 10244 10326 10332      1
 10245 10333 10334      1
 10246 10333 10338      1
 10247 10333 10339      1
 10248 10334 10335      1
 10249 10334 10340      1
 10250 10334 10343      1
 10251 10335 10336      1
 10252 10335 10337      2
 10253 10336 10341      1
 10254 10336 10342      1
 10255 10343 10344      1
 10256 10343 10348      1
 10257 10343 10349      1
 10258 10344 10345      1
 10259 10344 10350      1
 10260 10344 10353      1
 10261 10345 10346      1
 10262 10345 10347      2
 10263 10346 10351      1
 10264 10346 10352      1
 10265 10353 10354      1
 10266 10353 10358      1
 10267 10353 10359      1
 10268 10354 10355      1
 10269 10354 10360      1
 10270 10354 10363      1
 10271 10355 10356      1
 10272 10355 10357      2
 10273 10356 10361      1
 10274 10356 10362      1
 10275 10363 10364      1
 10276 10363 10368      1
 10277 10363 10369      1
 10278 10364 10365      1
 10279 10364 10370      1
 10280 10364 10373      1
 10281 10365 10366      1
 10282 10365 10367      2
 10283 10366 10371      1
 10284 10366 10372      1
 10285 10373 10374      1
 10286 10373 10378      1
 10287 10373 10379      1
 10288 10374 10375      1
 10289 10374 10380      1
 10290 10374 10383      1
 10291 10375 10376      1
 10292 10375 10377      2
 10293 10376 10381      1
 10294 10376 10382      1
 10295 10383 10384      1
 10296 10383 10388      1
 10297 10383 10389      1
 10298 10384 10385      1
 10299 10384 10390      1
 10300 10384 10393      1
 10301 10385 10386      1
 10302 10385 10387      2
 10303 10386 10391      1
 10304 10386 10392      1
 10305 10393 10394      1
 10306 10393 10398      1
 10307 10393 10399      1
 10308 10394 10395      1
 10309 10394 10400      1
 10310 10394 10403      1
 10311 10395 10396      1
 10312 10395 10397      2
 10313 10396 10401      1
 10314 10396 10402      1
 10315 10403 10404      1
 10316 10403 10408      1
 10317 10403 10409      1
 10318 10404 10405      1
 10319 10404 10410      1
 10320 10405 10406      1
 10321 10405 10407      2
 10322 10406 10411      1
 10323 10406 10412      1
 10324 10413 10414      1
 10325 10413 10418      1
 10326 10413 10419      1
 10327 10414 10415      1
 10328 10414 10420      1
 10329 10414 10423      1
 10330 10415 10416      1
 10331 10415 10417      2
 10332 10416 10421      1
 10333 10416 10422      1
 10334 10423 10424      1
 10335 10423 10428      1
 10336 10423 10429      1
 10337 10424 10425      1
 10338 10424 10430      1
 10339 10424 10433      1
 10340 10425 10426      1
 10341 10425 10427      2
 10342 10426 10431      1
 10343 10426 10432      1
 10344 10433 10434      1
 10345 10433 10438      1
 10346 10433 10439      1
 10347 10434 10435      1
 10348 10434 10440      1
 10349 10434 10443      1
 10350 10435 10436      1
 10351 10435 10437      2
 10352 10436 10441      1
 10353 10436 10442      1
 10354 10443 10444      1
 10355 10443 10448      1
 10356 10443 10449      1
 10357 10444 10445      1
 10358 10444 10450      1
 10359 10444 10453      1
 10360 10445 10446      1
 10361 10445 10447      2
 10362 10446 10451      1
 10363 10446 10452      1
 10364 10453 10454      1
 10365 10453 10458      1
 10366 10453 10459      1
 10367 10454 10455      1
 10368 10454 10460      1
 10369 10454 10463      1
 10370 10455 10456      1
 10371 10455 10457      2
 10372 10456 10461      1
 10373 10456 10462      1
 10374 10463 10464      1
 10375 10463 10468      1
 10376 10463 10469      1
 10377 10464 10465      1
 10378 10464 10470      1
 10379 10464 10473      1
 10380 10465 10466      1
 10381 10465 10467      2
 10382 10466 10471      1
 10383 10466 10472      1
 10384 10473 10474      1
 10385 10473 10478      1
 10386 10473 10479      1
 10387 10474 10475      1
 10388 10474 10480      1
 10389 10474 10483      1
 10390 10475 10476      1
 10391 10475 10477      2
 10392 10476 10481      1
 10393 10476 10482      1
 10394 10483 10484      1
 10395 10483 10488      1
 10396 10483 10489      1
 10397 10484 10485      1
 10398 10484 10490      1
 10399 10484 10493      1
 10400 10485 10486      1
 10401 10485 10487      2
 10402 10486 10491      1
 10403 10486 10492      1
 10404 10493 10494      1
 10405 10493 10498      1
 10406 10493 10499      1
 10407 10494 10495      1
 10408 10494 10500      1
 10409 10494 10503      1
 10410 10495 10496      1
 10411 10495 10497      2
 10412 10496 10501      1
 10413 10496 10502      1
 10414 10503 10504      1
 10415 10503 10508      1
 10416 10503 10509      1
 10417 10504 10505      1
 10418 10504 10510      1
 10419 10505 10506      1
 10420 10505 10507      2
 10421 10506 10511      1
 10422 10506 10512      1
 10423 10513 10514      1
 10424 10513 10518      1
 10425 10513 10519      1
 10426 10514 10515      1
 10427 10514 10520      1
 10428 10514 10523      1
 10429 10515 10516      1
 10430 10515 10517      2
 10431 10516 10521      1
 10432 10516 10522      1
 10433 10523 10524      1
 10434 10523 10528      1
 10435 10523 10529      1
 10436 10524 10525      1
 10437 10524 10530      1
 10438 10524 10533      1
 10439 10525 10526      1
 10440 10525 10527      2
 10441 10526 10531      1
 10442 10526 10532      1
 10443 10533 10534      1
 10444 10533 10538      1
 10445 10533 10539      1
 10446 10534 10535      1
 10447 10534 10540      1
 10448 10534 10543      1
 10449 10535 10536      1
 10450 10535 10537      2
 10451 10536 10541      1
 10452 10536 10542      1
 10453 10543 10544      1
 10454 10543 10548      1
 10455 10543 10549      1
 10456 10544 10545      1
 10457 10544 10550      1
 10458 10544 10553      1
 10459 10545 10546      1
 10460 10545 10547      2
 10461 10546 10551      1
 10462 10546 10552      1
 10463 10553 10554      1
 10464 10553 10558      1
 10465 10553 10559      1
 10466 10554 10555      1
 10467 10554 10560      1
 10468 10554 10563      1
 10469 10555 10556      1
 10470 10555 10557      2
 10471 10556 10561      1
 10472 10556 10562      1
 10473 10563 10564      1
 10474 10563 10568      1
 10475 10563 10569      1
 10476 10564 10565      1
 10477 10564 10570      1
 10478 10564 10573      1
 10479 10565 10566      1
 10480 10565 10567      2
 10481 10566 10571      1
 10482 10566 10572      1
 10483 10573 10574      1
 10484 10573 10578      1
 10485 10573 10579      1
 10486 10574 10575      1
 10487 10574 10580      1
 10488 10574 10583      1
 10489 10575 10576      1
 10490 10575 10577      2
 10491 10576 10581      1
 10492 10576 10582      1
 10493 10583 10584      1
 10494 10583 10588      1
 10495 10583 10589      1
 10496 10584 10585      1
 10497 10584 10590      1
 10498 10584 10593      1
 10499 10585 10586      1
 10500 10585 10587      2
 10501 10586 10591      1
 10502 10586 10592      1
 10503 10593 10594      1
 10504 10593 10598      1
 10505 10593 10599      1
 10506 10594 10595      1
 10507 10594 10600      1
 10508 10594 10603      1
 10509 10595 10596      1
 10510 10595 10597      2
 10511 10596 10601      1
 10512 10596 10602      1
 10513 10603 10604      1
 10514 10603 10608      1
 10515 10603 10609      1
 10516 10604 10605      1
 10517 10604 10610      1
 10518 10604 10613      1
 10519 10605 10606      1
 10520 10605 10607      2
 10521 10606 10611      1
 10522 10606 10612      1
 10523 10613 10614      1
 10524 10613 10618      1
 10525 10613 10619      1
 10526 10614 10615      1
 10527 10614 10620      1
 10528 10614 10623      1
 10529 10615 10616      1
 10530 10615 10617      2
 10531 10616 10621      1
 10532 10616 10622      1
 10533 10623 10624      1
 10534 10623 10628      1
 10535 10623 10629      1
 10536 10624 10625      1
 10537 10624 10630      1
 10538 10624 10633      1
 10539 10625 10626      1
 10540 10625 10627      2
 10541 10626 10631      1
 10542 10626 10632      1
 10543 10633 10634      1
 10544 10633 10638      1
 10545 10633 10639      1
 10546 10634 10635      1
 10547 10634 10640      1
 10548 10634 10643      1
 10549 10635 10636      1
 10550 10635 10637      2
 10551 10636 10641      1
 10552 10636 10642      1
 10553 10643 10644      1
 10554 10643 10648      1
 10555 10643 10649      1
 10556 10644 10645      1
 10557 10644 10650      1
 10558 10644 10653      1
 10559 10645 10646      1
 10560 10645 10647      2
 10561 10646 10651      1
 10562 10646 10652      1
 10563 10653 10654      1
 10564 10653 10658      1
 10565 10653 10659      1
 10566 10654 10655      1
 10567 10654 10660      1
 10568 10654 10663      1
 10569 10655 10656      1
 10570 10655 10657      2
 10571 10656 10661      1
 10572 10656 10662      1
 10573 10663 10664      1
 10574 10663 10668      1
 10575 10663 10669      1
 10576 10664 10665      1
 10577 10664 10670      1
 10578 10664 10673      1
 10579 10665 10666      1
 10580 10665 10667      2
 10581 10666 10671      1
 10582 10666 10672      1
 10583 10673 10674      1
 10584 10673 10678      1
 10585 10673 10679      1
 10586 10674 10675      1
 10587 10674 10680      1
 10588 10674 10683      1
 10589 10675 10676      1
 10590 10675 10677      2
 10591 10676 10681      1
 10592 10676 10682      1
 10593 10683 10684      1
 10594 10683 10688      1
 10595 10683 10689      1
 10596 10684 10685      1
 10597 10684 10690      1
 10598 10684 10693      1
 10599 10685 10686      1
 10600 10685 10687      2
 10601 10686 10691      1
 10602 10686 10692      1
 10603 10693 10694      1
 10604 10693 10698      1
 10605 10693 10699      1
 10606 10694 10695      1
 10607 10694 10700      1
 10608 10694 10703      1
 10609 10695 10696      1
 10610 10695 10697      2
 10611 10696 10701      1
 10612 10696 10702      1
 10613 10703 10704      1
 10614 10703 10708      1
 10615 10703 10709      1
 10616 10704 10705      1
 10617 10704 10710      1
 10618 10704 10713      1
 10619 10705 10706      1
 10620 10705 10707      2
 10621 10706 10711      1
 10622 10706 10712      1
 10623 10713 10714      1
 10624 10713 10718      1
 10625 10713 10719      1
 10626 10714 10715      1
 10627 10714 10720      1
 10628 10714 10723      1
 10629 10715 10716      1
 10630 10715 10717      2
 10631 10716 10721      1
 10632 10716 10722      1
 10633 10723 10724      1
 10634 10723 10728      1
 10635 10723 10729      1
 10636 10724 10725      1
 10637 10724 10730      1
 10638 10724 10733      1
 10639 10725 10726      1
 10640 10725 10727      2
 10641 10726 10731      1
 10642 10726 10732      1
 10643 10733 10734      1
 10644 10733 10738      1
 10645 10733 10739      1
 10646 10734 10735      1
 10647 10734 10740      1
 10648 10734 10743      1
 10649 10735 10736      1
 10650 10735 10737      2
 10651 10736 10741      1
 10652 10736 10742      1
 10653 10743 10744      1
 10654 10743 10748      1
 10655 10743 10749      1
 10656 10744 10745      1
 10657 10744 10750      1
 10658 10744 10753      1
 10659 10745 10746      1
 10660 10745 10747      2
 10661 10746 10751      1
 10662 10746 10752      1
 10663 10753 10754      1
 10664 10753 10758      1
 10665 10753 10759      1
 10666 10754 10755      1
 10667 10754 10760      1
 10668 10754 10763      1
 10669 10755 10756      1
 10670 10755 10757      2
 10671 10756 10761      1
 10672 10756 10762      1
 10673 10763 10764      1
 10674 10763 10768      1
 10675 10763 10769      1
 10676 10764 10765      1
 10677 10764 10770      1
 10678 10764 10773      1
 10679 10765 10766      1
 10680 10765 10767      2
 10681 10766 10771      1
 10682 10766 10772      1
 10683 10773 10774      1
 10684 10773 10778      1
 10685 10773 10779      1
 10686 10774 10775      1
 10687 10774 10780      1
 10688 10774 10783      1
 10689 10775 10776      1
 10690 10775 10777      2
 10691 10776 10781      1
 10692 10776 10782      1
 10693 10783 10784      1
 10694 10783 10788      1
 10695 10783 10789      1
 10696 10784 10785      1
 10697 10784 10790      1
 10698 10784 10793      1
 10699 10785 10786      1
 10700 10785 10787      2
 10701 10786 10791      1
 10702 10786 10792      1
 10703 10793 10794      1
 10704 10793 10798      1
 10705 10793 10799      1
 10706 10794 10795      1
 10707 10794 10800      1
 10708 10794 10803      1
 10709 10795 10796      1
 10710 10795 10797      2
 10711 10796 10801      1
 10712 10796 10802      1
 10713 10803 10804      1
 10714 10803 10808      1
 10715 10803 10809      1
 10716 10804 10805      1
 10717 10804 10810      1
 10718 10805 10806      1
 10719 10805 10807      2
 10720 10806 10811      1
 10721 10806 10812      1
 10722 10813 10814      1
 10723 10813 10818      1
 10724 10813 10819      1
 10725 10814 10815      1
 10726 10814 10820      1
 10727 10814 10823      1
 10728 10815 10816      1
 10729 10815 10817      2
 10730 10816 10821      1
 10731 10816 10822      1
 10732 10823 10824      1
 10733 10823 10828      1
 10734 10823 10829      1
 10735 10824 10825      1
 10736 10824 10830      1
 10737 10824 10833      1
 10738 10825 10826      1
 10739 10825 10827      2
 10740 10826 10831      1
 10741 10826 10832      1
 10742 10833 10834      1
 10743 10833 10838      1
 10744 10833 10839      1
 10745 10834 10835      1
 10746 10834 10840      1
 10747 10834 10843      1
 10748 10835 10836      1
 10749 10835 10837      2
 10750 10836 10841      1
 10751 10836 10842      1
 10752 10843 10844      1
 10753 10843 10848      1
 10754 10843 10849      1
 10755 10844 10845      1
 10756 10844 10850      1
 10757 10844 10853      1
 10758 10845 10846      1
 10759 10845 10847      2
 10760 10846 10851      1
 10761 10846 10852      1
 10762 10853 10854      1
 10763 10853 10858      1
 10764 10853 10859      1
 10765 10854 10855      1
 10766 10854 10860      1
 10767 10854 10863      1
 10768 10855 10856      1
 10769 10855 10857      2
 10770 10856 10861      1
 10771 10856 10862      1
 10772 10863 10864      1
 10773 10863 10868      1
 10774 10863 10869      1
 10775 10864 10865      1
 10776 10864 10870      1
 10777 10864 10873      1
 10778 10865 10866      1
 10779 10865 10867      2
 10780 10866 10871      1
 10781 10866 10872      1
 10782 10873 10874      1
 10783 10873 10878      1
 10784 10873 10879      1
 10785 10874 10875      1
 10786 10874 10880      1
 10787 10874 10883      1
 10788 10875 10876      1
 10789 10875 10877      2
 10790 10876 10881      1
 10791 10876 10882      1
 10792 10883 10884      1
 10793 10883 10888      1
 10794 10883 10889      1
 10795 10884 10885      1
 10796 10884 10890      1
 10797 10884 10893      1
 10798 10885 10886      1
 10799 10885 10887      2
 10800 10886 10891      1
 10801 10886 10892      1
 10802 10893 10894      1
 10803 10893 10898      1
 10804 10893 10899      1
 10805 10894 10895      1
 10806 10894 10900      1
 10807 10894 10903      1
 10808 10895 10896      1
 10809 10895 10897      2
 10810 10896 10901      1
 10811 10896 10902      1
 10812 10903 10904      1
 10813 10903 10908      1
 10814 10903 10909      1
 10815 10904 10905      1
 10816 10904 10910      1
 10817 10904 10913      1
 10818 10905 10906      1
 10819 10905 10907      2
 10820 10906 10911      1
 10821 10906 10912      1
 10822 10913 10914      1
 10823 10913 10918      1
 10824 10913 10919      1
 10825 10914 10915      1
 10826 10914 10920      1
 10827 10914 10923      1
 10828 10915 10916      1
 10829 10915 10917      2
 10830 10916 10921      1
 10831 10916 10922      1
 10832 10923 10924      1
 10833 10923 10928      1
 10834 10923 10929      1
 10835 10924 10925      1
 10836 10924 10930      1
 10837 10924 10933      1
 10838 10925 10926      1
 10839 10925 10927      2
 10840 10926 10931      1
 10841 10926 10932      1
 10842 10933 10934      1
 10843 10933 10938      1
 10844 10933 10939      1
 10845 10934 10935      1
 10846 10934 10940      1
 10847 10934 10943      1
 10848 10935 10936      1
 10849 10935 10937      2
 10850 10936 10941      1
 10851 10936 10942      1
 10852 10943 10944      1
 10853 10943 10948      1
 10854 10943 10949      1
 10855 10944 10945      1
 10856 10944 10950      1
 10857 10944 10953      1
 10858 10945 10946      1
 10859 10945 10947      2
 10860 10946 10951      1
 10861 10946 10952      1
 10862 10953 10954      1
 10863 10953 10958      1
 10864 10953 10959      1
 10865 10954 10955      1
 10866 10954 10960      1
 10867 10954 10963      1
 10868 10955 10956      1
 10869 10955 10957      2
 10870 10956 10961      1
 10871 10956 10962      1
 10872 10963 10964      1
 10873 10963 10968      1
 10874 10963 10969      1
 10875 10964 10965      1
 10876 10964 10970      1
 10877 10965 10966      1
 10878 10965 10967      2
 10879 10966 10971      1
 10880 10966 10972      1
 10881 10973 10974      1
 10882 10973 10978      1
 10883 10973 10979      1
 10884 10974 10975      1
 10885 10974 10980      1
 10886 10974 10983      1
 10887 10975 10976      1
 10888 10975 10977      2
 10889 10976 10981      1
 10890 10976 10982      1
 10891 10983 10984      1
 10892 10983 10988      1
 10893 10983 10989      1
 10894 10984 10985      1
 10895 10984 10990      1
 10896 10984 10993      1
 10897 10985 10986      1
 10898 10985 10987      2
 10899 10986 10991      1
 10900 10986 10992      1
 10901 10993 10994      1
 10902 10993 10998      1
 10903 10993 10999      1
 10904 10994 10995      1
 10905 10994 11000      1
 10906 10994 11003      1
 10907 10995 10996      1
 10908 10995 10997      2
 10909 10996 11001      1
 10910 10996 11002      1
 10911 11003 11004      1
 10912 11003 11008      1
 10913 11003 11009      1
 10914 11004 11005      1
 10915 11004 11010      1
 10916 11004 11013      1
 10917 11005 11006      1
 10918 11005 11007      2
 10919 11006 11011      1
 10920 11006 11012      1
 10921 11013 11014      1
 10922 11013 11018      1
 10923 11013 11019      1
 10924 11014 11015      1
 10925 11014 11020      1
 10926 11014 11023      1
 10927 11015 11016      1
 10928 11015 11017      2
 10929 11016 11021      1
 10930 11016 11022      1
 10931 11023 11024      1
 10932 11023 11028      1
 10933 11023 11029      1
 10934 11024 11025      1
 10935 11024 11030      1
 10936 11024 11033      1
 10937 11025 11026      1
 10938 11025 11027      2
 10939 11026 11031      1
 10940 11026 11032      1
 10941 11033 11034      1
 10942 11033 11038      1
 10943 11033 11039      1
 10944 11034 11035      1
 10945 11034 11040      1
 10946 11034 11043      1
 10947 11035 11036      1
 10948 11035 11037      2
 10949 11036 11041      1
 10950 11036 11042      1
 10951 11043 11044      1
 10952 11043 11048      1
 10953 11043 11049      1
 10954 11044 11045      1
 10955 11044 11050      1
 10956 11044 11053      1
 10957 11045 11046      1
 10958 11045 11047      2
 10959 11046 11051      1
 10960 11046 11052      1
 10961 11053 11054      1
 10962 11053 11058      1
 10963 11053 11059      1
 10964 11054 11055      1
 10965 11054 11060      1
 10966 11054 11063      1
 10967 11055 11056      1
 10968 11055 11057      2
 10969 11056 11061      1
 10970 11056 11062      1
 10971 11063 11064      1
 10972 11063 11068      1
 10973 11063 11069      1
 10974 11064 11065      1
 10975 11064 11070      1
 10976 11064 11073      1
 10977 11065 11066      1
 10978 11065 11067      2
 10979 11066 11071      1
 10980 11066 11072      1
 10981 11073 11074      1
 10982 11073 11078      1
 10983 11073 11079      1
 10984 11074 11075      1
 10985 11074 11080      1
 10986 11074 11083      1
 10987 11075 11076      1
 10988 11075 11077      2
 10989 11076 11081      1
 10990 11076 11082      1
 10991 11083 11084      1
 10992 11083 11088      1
 10993 11083 11089      1
 10994 11084 11085      1
 10995 11084 11090      1
 10996 11084 11093      1
 10997 11085 11086      1
 10998 11085 11087      2
 10999 11086 11091      1
 11000 11086 11092      1
 11001 11093 11094      1
 11002 11093 11098      1
 11003 11093 11099      1
 11004 11094 11095      1
 11005 11094 11100      1
 11006 11094 11103      1
 11007 11095 11096      1
 11008 11095 11097      2
 11009 11096 11101      1
 11010 11096 11102      1
 11011 11103 11104      1
 11012 11103 11108      1
 11013 11103 11109      1
 11014 11104 11105      1
 11015 11104 11110      1
 11016 11104 11113      1
 11017 11105 11106      1
 11018 11105 11107      2
 11019 11106 11111      1
 11020 11106 11112      1
 11021 11113 11114      1
 11022 11113 11118      1
 11023 11113 11119      1
 11024 11114 11115      1
 11025 11114 11120      1
 11026 11114 11123      1
 11027 11115 11116      1
 11028 11115 11117      2
 11029 11116 11121      1
 11030 11116 11122      1
 11031 11123 11124      1
 11032 11123 11128      1
 11033 11123 11129      1
 11034 11124 11125      1
 11035 11124 11130      1
 11036 11124 11133      1
 11037 11125 11126      1
 11038 11125 11127      2
 11039 11126 11131      1
 11040 11126 11132      1
 11041 11133 11134      1
 11042 11133 11138      1
 11043 11133 11139      1
 11044 11134 11135      1
 11045 11134 11140      1
 11046 11134 11143      1
 11047 11135 11136      1
 11048 11135 11137      2
 11049 11136 11141      1
 11050 11136 11142      1
 11051 11143 11144      1
 11052 11143 11148      1
 11053 11143 11149      1
 11054 11144 11145      1
 11055 11144 11150      1
 11056 11144 11153      1
 11057 11145 11146      1
 11058 11145 11147      2
 11059 11146 11151      1
 11060 11146 11152      1
 11061 11153 11154      1
 11062 11153 11158      1
 11063 11153 11159      1
 11064 11154 11155      1
 11065 11154 11160      1
 11066 11154 11163      1
 11067 11155 11156      1
 11068 11155 11157      2
 11069 11156 11161      1
 11070 11156 11162      1
 11071 11163 11164      1
 11072 11163 11168      1
 11073 11163 11169      1
 11074 11164 11165      1
 11075 11164 11170      1
 11076 11164 11173      1
 11077 11165 11166      1
 11078 11165 11167      2
 11079 11166 11171      1
 11080 11166 11172      1
 11081 11173 11174      1
 11082 11173 11178      1
 11083 11173 11179      1
 11084 11174 11175      1
 11085 11174 11180      1
 11086 11174 11183      1
 11087 11175 11176      1
 11088 11175 11177      2
 11089 11176 11181      1
 11090 11176 11182      1
 11091 11183 11184      1
 11092 11183 11188      1
 11093 11183 11189      1
 11094 11184 11185      1
 11095 11184 11190      1
 11096 11185 11186      1
 11097 11185 11187      2
 11098 11186 11191      1
 11099 11186 11192      1
 11100 11193 11194      1
 11101 11193 11198      1
 11102 11193 11199      1
 11103 11194 11195      1
 11104 11194 11200      1
 11105 11194 11203      1
 11106 11195 11196      1
 11107 11195 11197      2
 11108 11196 11201      1
 11109 11196 11202      1
 11110 11203 11204      1
 11111 11203 11208      1
 11112 11203 11209      1
 11113 11204 11205      1
 11114 11204 11210      1
 11115 11204 11213      1
 11116 11205 11206      1
 11117 11205 11207      2
 11118 11206 11211      1
 11119 11206 11212      1
 11120 11213 11214      1
 11121 11213 11218      1
 11122 11213 11219      1
 11123 11214 11215      1
 11124 11214 11220      1
 11125 11214 11223      1
 11126 11215 11216      1
 11127 11215 11217      2
 11128 11216 11221      1
 11129 11216 11222      1
 11130 11223 11224      1
 11131 11223 11228      1
 11132 11223 11229      1
 11133 11224 11225      1
 11134 11224 11230      1
 11135 11224 11233      1
 11136 11225 11226      1
 11137 11225 11227      2
 11138 11226 11231      1
 11139 11226 11232      1
 11140 11233 11234      1
 11141 11233 11238      1
 11142 11233 11239      1
 11143 11234 11235      1
 11144 11234 11240      1
 11145 11234 11243      1
 11146 11235 11236      1
 11147 11235 11237      2
 11148 11236 11241      1
 11149 11236 11242      1
 11150 11243 11244      1
 11151 11243 11248      1
 11152 11243 11249      1
 11153 11244 11245      1
 11154 11244 11250      1
 11155 11244 11253      1
 11156 11245 11246      1
 11157 11245 11247      2
 11158 11246 11251      1
 11159 11246 11252      1
 11160 11253 11254      1
 11161 11253 11258      1
 11162 11253 11259      1
 11163 11254 11255      1
 11164 11254 11260      1
 11165 11254 11263      1
 11166 11255 11256      1
 11167 11255 11257      2
 11168 11256 11261      1
 11169 11256 11262      1
 11170 11263 11264      1
 11171 11263 11268      1
 11172 11263 11269      1
 11173 11264 11265      1
 11174 11264 11270      1
 11175 11264 11273      1
 11176 11265 11266      1
 11177 11265 11267      2
 11178 11266 11271      1
 11179 11266 11272      1
 11180 11273 11274      1
 11181 11273 11278      1
 11182 11273 11279      1
 11183 11274 11275      1
 11184 11274 11280      1
 11185 11274 11283      1
 11186 11275 11276      1
 11187 11275 11277      2
 11188 11276 11281      1
 11189 11276 11282      1
 11190 11283 11284      1
 11191 11283 11288      1
 11192 11283 11289      1
 11193 11284 11285      1
 11194 11284 11290      1
 11195 11284 11293      1
 11196 11285 11286      1
 11197 11285 11287      2
 11198 11286 11291      1
 11199 11286 11292      1
 11200 11293 11294      1
 11201 11293 11298      1
 11202 11293 11299      1
 11203 11294 11295      1
 11204 11294 11300      1
 11205 11294 11303      1
 11206 11295 11296      1
 11207 11295 11297      2
 11208 11296 11301      1
 11209 11296 11302      1
 11210 11303 11304      1
 11211 11303 11308      1
 11212 11303 11309      1
 11213 11304 11305      1
 11214 11304 11310      1
 11215 11304 11313      1
 11216 11305 11306      1
 11217 11305 11307      2
 11218 11306 11311      1
 11219 11306 11312      1
 11220 11313 11314      1
 11221 11313 11318      1
 11222 11313 11319      1
 11223 11314 11315      1
 11224 11314 11320      1
 11225 11314 11323      1
 11226 11315 11316      1
 11227 11315 11317      2
 11228 11316 11321      1
 11229 11316 11322      1
 11230 11323 11324      1
 11231 11323 11328      1
 11232 11323 11329      1
 11233 11324 11325      1
 11234 11324 11330      1
 11235 11324 11333      1
 11236 11325 11326      1
 11237 11325 11327      2
 11238 11326 11331      1
 11239 11326 11332      1
 11240 11333 11334      1
 11241 11333 11338      1
 11242 11333 11339      1
 11243 11334 11335      1
 11244 11334 11340      1
 11245 11334 11343      1
 11246 11335 11336      1
 11247 11335 11337      2
 11248 11336 11341      1
 11249 11336 11342      1
 11250 11343 11344      1
 11251 11343 11348      1
 11252 11343 11349      1
 11253 11344 11345      1
 11254 11344 11350      1
 11255 11344 11353      1
 11256 11345 11346      1
 11257 11345 11347      2
 11258 11346 11351      1
 11259 11346 11352      1
 11260 11353 11354      1
 11261 11353 11358      1
 11262 11353 11359      1
 11263 11354 11355      1
 11264 11354 11360      1
 11265 11354 11363      1
 11266 11355 11356      1
 11267 11355 11357      2
 11268 11356 11361      1
 11269 11356 11362      1
 11270 11363 11364      1
 11271 11363 11368      1
 11272 11363 11369      1
 11273 11364 11365      1
 11274 11364 11370      1
 11275 11364 11373      1
 11276 11365 11366      1
 11277 11365 11367      2
 11278 11366 11371      1
 11279 11366 11372      1
 11280 11373 11374      1
 11281 11373 11378      1
 11282 11373 11379      1
 11283 11374 11375      1
 11284 11374 11380      1
 11285 11374 11383      1
 11286 11375 11376      1
 11287 11375 11377      2
 11288 11376 11381      1
 11289 11376 11382      1
 11290 11383 11384      1
 11291 11383 11388      1
 11292 11383 11389      1
 11293 11384 11385      1
 11294 11384 11390      1
 11295 11384 11393      1
 11296 11385 11386      1
 11297 11385 11387      2
 11298 11386 11391      1
 11299 11386 11392      1
 11300 11393 11394      1
 11301 11393 11398      1
 11302 11393 11399      1
 11303 11394 11395      1
 11304 11394 11400      1
 11305 11394 11403      1
 11306 11395 11396      1
 11307 11395 11397      2
 11308 11396 11401      1
 11309 11396 11402      1
 11310 11403 11404      1
 11311 11403 11408      1
 11312 11403 11409      1
 11313 11404 11405      1
 11314 11404 11410      1
 11315 11404 11413      1
 11316 11405 11406      1
 11317 11405 11407      2
 11318 11406 11411      1
 11319 11406 11412      1
 11320 11413 11414      1
 11321 11413 11418      1
 11322 11413 11419      1
 11323 11414 11415      1
 11324 11414 11420      1
 11325 11414 11423      1
 11326 11415 11416      1
 11327 11415 11417      2
 11328 11416 11421      1
 11329 11416 11422      1
 11330 11423 11424      1
 11331 11423 11428      1
 11332 11423 11429      1
 11333 11424 11425      1
 11334 11424 11430      1
 11335 11424 11433      1
 11336 11425 11426      1
 11337 11425 11427      2
 11338 11426 11431      1
 11339 11426 11432      1
 11340 11433 11434      1
 11341 11433 11438      1
 11342 11433 11439      1
 11343 11434 11435      1
 11344 11434 11440      1
 11345 11434 11443      1
 11346 11435 11436      1
 11347 11435 11437      2
 11348 11436 11441      1
 11349 11436 11442      1
 11350 11443 11444      1
 11351 11443 11448      1
 11352 11443 11449      1
 11353 11444 11445      1
 11354 11444 11450      1
 11355 11444 11453      1
 11356 11445 11446      1
 11357 11445 11447      2
 11358 11446 11451      1
 11359 11446 11452      1
 11360 11453 11454      1
 11361 11453 11458      1
 11362 11453 11459      1
 11363 11454 11455      1
 11364 11454 11460      1
 11365 11454 11463      1
 11366 11455 11456      1
 11367 11455 11457      2
 11368 11456 11461      1
 11369 11456 11462      1
 11370 11463 11464      1
 11371 11463 11468      1
 11372 11463 11469      1
 11373 11464 11465      1
 11374 11464 11470      1
 11375 11464 11473      1
 11376 11465 11466      1
 11377 11465 11467      2
 11378 11466 11471      1
 11379 11466 11472      1
 11380 11473 11474      1
 11381 11473 11478      1
 11382 11473 11479      1
 11383 11474 11475      1
 11384 11474 11480      1
 11385 11474 11483      1
 11386 11475 11476      1
 11387 11475 11477      2
 11388 11476 11481      1
 11389 11476 11482      1
 11390 11483 11484      1
 11391 11483 11488      1
 11392 11483 11489      1
 11393 11484 11485      1
 11394 11484 11490      1
 11395 11484 11493      1
 11396 11485 11486      1
 11397 11485 11487      2
 11398 11486 11491      1
 11399 11486 11492      1
 11400 11493 11494      1
 11401 11493 11498      1
 11402 11493 11499      1
 11403 11494 11495      1
 11404 11494 11500      1
 11405 11494 11503      1
 11406 11495 11496      1
 11407 11495 11497      2
 11408 11496 11501      1
 11409 11496 11502      1
 11410 11503 11504      1
 11411 11503 11508      1
 11412 11503 11509      1
 11413 11504 11505      1
 11414 11504 11510      1
 11415 11504 11513      1
 11416 11505 11506      1
 11417 11505 11507      2
 11418 11506 11511      1
 11419 11506 11512      1
 11420 11513 11514      1
 11421 11513 11518      1
 11422 11513 11519      1
 11423 11514 11515      1
 11424 11514 11520      1
 11425 11514 11523      1
 11426 11515 11516      1
 11427 11515 11517      2
 11428 11516 11521      1
 11429 11516 11522      1
 11430 11523 11524      1
 11431 11523 11528      1
 11432 11523 11529      1
 11433 11524 11525      1
 11434 11524 11530      1
 11435 11524 11533      1
 11436 11525 11526      1
 11437 11525 11527      2
 11438 11526 11531      1
 11439 11526 11532      1
 11440 11533 11534      1
 11441 11533 11538      1
 11442 11533 11539      1
 11443 11534 11535      1
 11444 11534 11540      1
 11445 11534 11543      1
 11446 11535 11536      1
 11447 11535 11537      2
 11448 11536 11541      1
 11449 11536 11542      1
 11450 11543 11544      1
 11451 11543 11548      1
 11452 11543 11549      1
 11453 11544 11545      1
 11454 11544 11550      1
 11455 11544 11553      1
 11456 11545 11546      1
 11457 11545 11547      2
 11458 11546 11551      1
 11459 11546 11552      1
 11460 11553 11554      1
 11461 11553 11558      1
 11462 11553 11559      1
 11463 11554 11555      1
 11464 11554 11560      1
 11465 11554 11563      1
 11466 11555 11556      1
 11467 11555 11557      2
 11468 11556 11561      1
 11469 11556 11562      1
 11470 11563 11564      1
 11471 11563 11568      1
 11472 11563 11569      1
 11473 11564 11565      1
 11474 11564 11570      1
 11475 11564 11573      1
 11476 11565 11566      1
 11477 11565 11567      2
 11478 11566 11571      1
 11479 11566 11572      1
 11480 11573 11574      1
 11481 11573 11578      1
 11482 11573 11579      1
 11483 11574 11575      1
 11484 11574 11580      1
 11485 11574 11583      1
 11486 11575 11576      1
 11487 11575 11577      2
 11488 11576 11581      1
 11489 11576 11582      1
 11490 11583 11584      1
 11491 11583 11588      1
 11492 11583 11589      1
 11493 11584 11585      1
 11494 11584 11590      1
 11495 11584 11593      1
 11496 11585 11586      1
 11497 11585 11587      2
 11498 11586 11591      1
 11499 11586 11592      1
 11500 11593 11594      1
 11501 11593 11598      1
 11502 11593 11599      1
 11503 11594 11595      1
 11504 11594 11600      1
 11505 11594 11603      1
 11506 11595 11596      1
 11507 11595 11597      2
 11508 11596 11601      1
 11509 11596 11602      1
 11510 11603 11604      1
 11511 11603 11608      1
 11512 11603 11609      1
 11513 11604 11605      1
 11514 11604 11610      1
 11515 11604 11613      1
 11516 11605 11606      1
 11517 11605 11607      2
 11518 11606 11611      1
 11519 11606 11612      1
 11520 11613 11614      1
 11521 11613 11618      1
 11522 11613 11619      1
 11523 11614 11615      1
 11524 11614 11620      1
 11525 11614 11623      1
 11526 11615 11616      1
 11527 11615 11617      2
 11528 11616 11621      1
 11529 11616 11622      1
 11530 11623 11624      1
 11531 11623 11628      1
 11532 11623 11629      1
 11533 11624 11625      1
 11534 11624 11630      1
 11535 11624 11633      1
 11536 11625 11626      1
 11537 11625 11627      2
 11538 11626 11631      1
 11539 11626 11632      1
 11540 11633 11634      1
 11541 11633 11638      1
 11542 11633 11639      1
 11543 11634 11635      1
 11544 11634 11640      1
 11545 11634 11643      1
 11546 11635 11636      1
 11547 11635 11637      2
 11548 11636 11641      1
 11549 11636 11642      1
 11550 11643 11644      1
 11551 11643 11648      1
 11552 11643 11649      1
 11553 11644 11645      1
 11554 11644 11650      1
 11555 11645 11646      1
 11556 11645 11647      2
 11557 11646 11651      1
 11558 11646 11652      1
 11559 11653 11654      1
 11560 11653 11658      1
 11561 11653 11659      1
 11562 11654 11655      1
 11563 11654 11660      1
 11564 11654 11663      1
 11565 11655 11656      1
 11566 11655 11657      2
 11567 11656 11661      1
 11568 11656 11662      1
 11569 11663 11664      1
 11570 11663 11668      1
 11571 11663 11669      1
 11572 11664 11665      1
 11573 11664 11670      1
 11574 11664 11673      1
 11575 11665 11666      1
 11576 11665 11667      2
 11577 11666 11671      1
 11578 11666 11672      1
 11579 11673 11674      1
 11580 11673 11678      1
 11581 11673 11679      1
 11582 11674 11675      1
 11583 11674 11680      1
 11584 11674 11683      1
 11585 11675 11676      1
 11586 11675 11677      2
 11587 11676 11681      1
 11588 11676 11682      1
 11589 11683 11684      1
 11590 11683 11688      1
 11591 11683 11689      1
 11592 11684 11685      1
 11593 11684 11690      1
 11594 11684 11693      1
 11595 11685 11686      1
 11596 11685 11687      2
 11597 11686 11691      1
 11598 11686 11692      1
 11599 11693 11694      1
 11600 11693 11698      1
 11601 11693 11699      1
 11602 11694 11695      1
 11603 11694 11700      1
 11604 11694 11703      1
 11605 11695 11696      1
 11606 11695 11697      2
 11607 11696 11701      1
 11608 11696 11702      1
 11609 11703 11704      1
 11610 11703 11708      1
 11611 11703 11709      1
 11612 11704 11705      1
 11613 11704 11710      1
 11614 11704 11713      1
 11615 11705 11706      1
 11616 11705 11707      2
 11617 11706 11711      1
 11618 11706 11712      1
 11619 11713 11714      1
 11620 11713 11718      1
 11621 11713 11719      1
 11622 11714 11715      1
 11623 11714 11720      1
 11624 11714 11723      1
 11625 11715 11716      1
 11626 11715 11717      2
 11627 11716 11721      1
 11628 11716 11722      1
 11629 11723 11724      1
 11630 11723 11728      1
 11631 11723 11729      1
 11632 11724 11725      1
 11633 11724 11730      1
 11634 11724 11733      1
 11635 11725 11726      1
 11636 11725 11727      2
 11637 11726 11731      1
 11638 11726 11732      1
 11639 11733 11734      1
 11640 11733 11738      1
 11641 11733 11739      1
 11642 11734 11735      1
 11643 11734 11740      1
 11644 11734 11743      1
 11645 11735 11736      1
 11646 11735 11737      2
 11647 11736 11741      1
 11648 11736 11742      1
 11649 11743 11744      1
 11650 11743 11748      1
 11651 11743 11749      1
 11652 11744 11745      1
 11653 11744 11750      1
 11654 11744 11753      1
 11655 11745 11746      1
 11656 11745 11747      2
 11657 11746 11751      1
 11658 11746 11752      1
 11659 11753 11754      1
 11660 11753 11758      1
 11661 11753 11759      1
 11662 11754 11755      1
 11663 11754 11760      1
 11664 11754 11763      1
 11665 11755 11756      1
 11666 11755 11757      2
 11667 11756 11761      1
 11668 11756 11762      1
 11669 11763 11764      1
 11670 11763 11768      1
 11671 11763 11769      1
 11672 11764 11765      1
 11673 11764 11770      1
 11674 11764 11773      1
 11675 11765 11766      1
 11676 11765 11767      2
 11677 11766 11771      1
 11678 11766 11772      1
 11679 11773 11774      1
 11680 11773 11778      1
 11681 11773 11779      1
 11682 11774 11775      1
 11683 11774 11780      1
 11684 11774 11783      1
 11685 11775 11776      1
 11686 11775 11777      2
 11687 11776 11781      1
 11688 11776 11782      1
 11689 11783 11784      1
 11690 11783 11788      1
 11691 11783 11789      1
 11692 11784 11785      1
 11693 11784 11790      1
 11694 11784 11793      1
 11695 11785 11786      1
 11696 11785 11787      2
 11697 11786 11791      1
 11698 11786 11792      1
 11699 11793 11794      1
 11700 11793 11798      1
 11701 11793 11799      1
 11702 11794 11795      1
 11703 11794 11800      1
 11704 11794 11803      1
 11705 11795 11796      1
 11706 11795 11797      2
 11707 11796 11801      1
 11708 11796 11802      1
 11709 11803 11804      1
 11710 11803 11808      1
 11711 11803 11809      1
 11712 11804 11805      1
 11713 11804 11810      1
 11714 11804 11813      1
 11715 11805 11806      1
 11716 11805 11807      2
 11717 11806 11811      1
 11718 11806 11812      1
 11719 11813 11814      1
 11720 11813 11818      1
 11721 11813 11819      1
 11722 11814 11815      1
 11723 11814 11820      1
 11724 11814 11823      1
 11725 11815 11816      1
 11726 11815 11817      2
 11727 11816 11821      1
 11728 11816 11822      1
 11729 11823 11824      1
 11730 11823 11828      1
 11731 11823 11829      1
 11732 11824 11825      1
 11733 11824 11830      1
 11734 11824 11833      1
 11735 11825 11826      1
 11736 11825 11827      2
 11737 11826 11831      1
 11738 11826 11832      1
 11739 11833 11834      1
 11740 11833 11838      1
 11741 11833 11839      1
 11742 11834 11835      1
 11743 11834 11840      1
 11744 11834 11843      1
 11745 11835 11836      1
 11746 11835 11837      2
 11747 11836 11841      1
 11748 11836 11842      1
 11749 11843 11844      1
 11750 11843 11848      1
 11751 11843 11849      1
 11752 11844 11845      1
 11753 11844 11850      1
 11754 11844 11853      1
 11755 11845 11846      1
 11756 11845 11847      2
 11757 11846 11851      1
 11758 11846 11852      1
 11759 11853 11854      1
 11760 11853 11858      1
 11761 11853 11859      1
 11762 11854 11855      1
 11763 11854 11860      1
 11764 11854 11863      1
 11765 11855 11856      1
 11766 11855 11857      2
 11767 11856 11861      1
 11768 11856 11862      1
 11769 11863 11864      1
 11770 11863 11868      1
 11771 11863 11869      1
 11772 11864 11865      1
 11773 11864 11870      1
 11774 11864 11873      1
 11775 11865 11866      1
 11776 11865 11867      2
 11777 11866 11871      1
 11778 11866 11872      1
 11779 11873 11874      1
 11780 11873 11878      1
 11781 11873 11879      1
 11782 11874 11875      1
 11783 11874 11880      1
 11784 11874 11883      1
 11785 11875 11876      1
 11786 11875 11877      2
 11787 11876 11881      1
 11788 11876 11882      1
 11789 11883 11884      1
 11790 11883 11888      1
 11791 11883 11889      1
 11792 11884 11885      1
 11793 11884 11890      1
 11794 11884 11893      1
 11795 11885 11886      1
 11796 11885 11887      2
 11797 11886 11891      1
 11798 11886 11892      1
 11799 11893 11894      1
 11800 11893 11898      1
 11801 11893 11899      1
 11802 11894 11895      1
 11803 11894 11900      1
 11804 11894 11903      1
 11805 11895 11896      1
 11806 11895 11897      2
 11807 11896 11901      1
 11808 11896 11902      1
 11809 11903 11904      1
 11810 11903 11908      1
 11811 11903 11909      1
 11812 11904 11905      1
 11813 11904 11910      1
 11814 11904 11913      1
 11815 11905 11906      1
 11816 11905 11907      2
 11817 11906 11911      1
 11818 11906 11912      1
 11819 11913 11914      1
 11820 11913 11918      1
 11821 11913 11919      1
 11822 11914 11915      1
 11823 11914 11920      1
 11824 11914 11923      1
 11825 11915 11916      1
 11826 11915 11917      2
 11827 11916 11921      1
 11828 11916 11922      1
 11829 11923 11924      1
 11830 11923 11928      1
 11831 11923 11929      1
 11832 11924 11925      1
 11833 11924 11930      1
 11834 11924 11933      1
 11835 11925 11926      1
 11836 11925 11927      2
 11837 11926 11931      1
 11838 11926 11932      1
 11839 11933 11934      1
 11840 11933 11938      1
 11841 11933 11939      1
 11842 11934 11935      1
 11843 11934 11940      1
 11844 11934 11943      1
 11845 11935 11936      1
 11846 11935 11937      2
 11847 11936 11941      1
 11848 11936 11942      1
 11849 11943 11944      1
 11850 11943 11948      1
 11851 11943 11949      1
 11852 11944 11945      1
 11853 11944 11950      1
 11854 11944 11953      1
 11855 11945 11946      1
 11856 11945 11947      2
 11857 11946 11951      1
 11858 11946 11952      1
 11859 11953 11954      1
 11860 11953 11958      1
 11861 11953 11959      1
 11862 11954 11955      1
 11863 11954 11960      1
 11864 11954 11963      1
 11865 11955 11956      1
 11866 11955 11957      2
 11867 11956 11961      1
 11868 11956 11962      1
 11869 11963 11964      1
 11870 11963 11968      1
 11871 11963 11969      1
 11872 11964 11965      1
 11873 11964 11970      1
 11874 11964 11973      1
 11875 11965 11966      1
 11876 11965 11967      2
 11877 11966 11971      1
 11878 11966 11972      1
 11879 11973 11974      1
 11880 11973 11978      1
 11881 11973 11979      1
 11882 11974 11975      1
 11883 11974 11980      1
 11884 11974 11983      1
 11885 11975 11976      1
 11886 11975 11977      2
 11887 11976 11981      1
 11888 11976 11982      1
 11889 11983 11984      1
 11890 11983 11988      1
 11891 11983 11989      1
 11892 11984 11985      1
 11893 11984 11990      1
 11894 11984 11993      1
 11895 11985 11986      1
 11896 11985 11987      2
 11897 11986 11991      1
 11898 11986 11992      1
 11899 11993 11994      1
 11900 11993 11998      1
 11901 11993 11999      1
 11902 11994 11995      1
 11903 11994 12000      1
 11904 11994 12003      1
 11905 11995 11996      1
 11906 11995 11997      2
 11907 11996 12001      1
 11908 11996 12002      1
 11909 12003 12004      1
 11910 12003 12008      1
 11911 12003 12009      1
 11912 12004 12005      1
 11913 12004 12010      1
 11914 12004 12013      1
 11915 12005 12006      1
 11916 12005 12007      2
 11917 12006 12011      1
 11918 12006 12012      1
 11919 12013 12014      1
 11920 12013 12018      1
 11921 12013 12019      1
 11922 12014 12015      1
 11923 12014 12020      1
 11924 12014 12023      1
 11925 12015 12016      1
 11926 12015 12017      2
 11927 12016 12021      1
 11928 12016 12022      1
 11929 12023 12024      1
 11930 12023 12028      1
 11931 12023 12029      1
 11932 12024 12025      1
 11933 12024 12030      1
 11934 12024 12033      1
 11935 12025 12026      1
 11936 12025 12027      2
 11937 12026 12031      1
 11938 12026 12032      1
 11939 12033 12034      1
 11940 12033 12038      1
 11941 12033 12039      1
 11942 12034 12035      1
 11943 12034 12040      1
 11944 12034 12043      1
 11945 12035 12036      1
 11946 12035 12037      2
 11947 12036 12041      1
 11948 12036 12042      1
 11949 12043 12044      1
 11950 12043 12048      1
 11951 12043 12049      1
 11952 12044 12045      1
 11953 12044 12050      1
 11954 12044 12053      1
 11955 12045 12046      1
 11956 12045 12047      2
 11957 12046 12051      1
 11958 12046 12052      1
 11959 12053 12054      1
 11960 12053 12058      1
 11961 12053 12059      1
 11962 12054 12055      1
 11963 12054 12060      1
 11964 12054 12063      1
 11965 12055 12056      1
 11966 12055 12057      2
 11967 12056 12061      1
 11968 12056 12062      1
 11969 12063 12064      1
 11970 12063 12068      1
 11971 12063 12069      1
 11972 12064 12065      1
 11973 12064 12070      1
 11974 12064 12073      1
 11975 12065 12066      1
 11976 12065 12067      2
 11977 12066 12071      1
 11978 12066 12072      1
 11979 12073 12074      1
 11980 12073 12078      1
 11981 12073 12079      1
 11982 12074 12075      1
 11983 12074 12080      1
 11984 12074 12083      1
 11985 12075 12076      1
 11986 12075 12077      2
 11987 12076 12081      1
 11988 12076 12082      1
 11989 12083 12084      1
 11990 12083 12088      1
 11991 12083 12089      1
 11992 12084 12085      1
 11993 12084 12090      1
 11994 12085 12086      1
 11995 12085 12087      2
 11996 12086 12091      1
 11997 12086 12092      1
 11998 12093 12094      1
 11999 12093 12098      1
 12000 12093 12099      1
 12001 12094 12095      1
 12002 12094 12100      1
 12003 12094 12103      1
 12004 12095 12096      1
 12005 12095 12097      2
 12006 12096 12101      1
 12007 12096 12102      1
 12008 12103 12104      1
 12009 12103 12108      1
 12010 12103 12109      1
 12011 12104 12105      1
 12012 12104 12110      1
 12013 12104 12113      1
 12014 12105 12106      1
 12015 12105 12107      2
 12016 12106 12111      1
 12017 12106 12112      1
 12018 12113 12114      1
 12019 12113 12118      1
 12020 12113 12119      1
 12021 12114 12115      1
 12022 12114 12120      1
 12023 12114 12123      1
 12024 12115 12116      1
 12025 12115 12117      2
 12026 12116 12121      1
 12027 12116 12122      1
 12028 12123 12124      1
 12029 12123 12128      1
 12030 12123 12129      1
 12031 12124 12125      1
 12032 12124 12130      1
 12033 12124 12133      1
 12034 12125 12126      1
 12035 12125 12127      2
 12036 12126 12131      1
 12037 12126 12132      1
 12038 12133 12134      1
 12039 12133 12138      1
 12040 12133 12139      1
 12041 12134 12135      1
 12042 12134 12140      1
 12043 12134 12143      1
 12044 12135 12136      1
 12045 12135 12137      2
 12046 12136 12141      1
 12047 12136 12142      1
 12048 12143 12144      1
 12049 12143 12148      1
 12050 12143 12149      1
 12051 12144 12145      1
 12052 12144 12150      1
 12053 12144 12153      1
 12054 12145 12146      1
 12055 12145 12147      2
 12056 12146 12151      1
 12057 12146 12152      1
 12058 12153 12154      1
 12059 12153 12158      1
 12060 12153 12159      1
 12061 12154 12155      1
 12062 12154 12160      1
 12063 12154 12163      1
 12064 12155 12156      1
 12065 12155 12157      2
 12066 12156 12161      1
 12067 12156 12162      1
 12068 12163 12164      1
 12069 12163 12168      1
 12070 12163 12169      1
 12071 12164 12165      1
 12072 12164 12170      1
 12073 12165 12166      1
 12074 12165 12167      2
 12075 12166 12171      1
 12076 12166 12172      1
 12077 12173 12174      1
 12078 12173 12178      1
 12079 12173 12179      1
 12080 12174 12175      1
 12081 12174 12180      1
 12082 12174 12183      1
 12083 12175 12176      1
 12084 12175 12177      2
 12085 12176 12181      1
 12086 12176 12182      1
 12087 12183 12184      1
 12088 12183 12188      1
 12089 12183 12189      1
 12090 12184 12185      1
 12091 12184 12190      1
 12092 12184 12193      1
 12093 12185 12186      1
 12094 12185 12187      2
 12095 12186 12191      1
 12096 12186 12192      1
 12097 12193 12194      1
 12098 12193 12198      1
 12099 12193 12199      1
 12100 12194 12195      1
 12101 12194 12200      1
 12102 12194 12203      1
 12103 12195 12196      1
 12104 12195 12197      2
 12105 12196 12201      1
 12106 12196 12202      1
 12107 12203 12204      1
 12108 12203 12208      1
 12109 12203 12209      1
 12110 12204 12205      1
 12111 12204 12210      1
 12112 12204 12213      1
 12113 12205 12206      1
 12114 12205 12207      2
 12115 12206 12211      1
 12116 12206 12212      1
 12117 12213 12214      1
 12118 12213 12218      1
 12119 12213 12219      1
 12120 12214 12215      1
 12121 12214 12220      1
 12122 12214 12223      1
 12123 12215 12216      1
 12124 12215 12217      2
 12125 12216 12221      1
 12126 12216 12222      1
 12127 12223 12224      1
 12128 12223 12228      1
 12129 12223 12229      1
 12130 12224 12225      1
 12131 12224 12230      1
 12132 12224 12233      1
 12133 12225 12226      1
 12134 12225 12227      2
 12135 12226 12231      1
 12136 12226 12232      1
 12137 12233 12234      1
 12138 12233 12238      1
 12139 12233 12239      1
 12140 12234 12235      1
 12141 12234 12240      1
 12142 12234 12243      1
 12143 12235 12236      1
 12144 12235 12237      2
 12145 12236 12241      1
 12146 12236 12242      1
 12147 12243 12244      1
 12148 12243 12248      1
 12149 12243 12249      1
 12150 12244 12245      1
 12151 12244 12250      1
 12152 12244 12253      1
 12153 12245 12246      1
 12154 12245 12247      2
 12155 12246 12251      1
 12156 12246 12252      1
 12157 12253 12254      1
 12158 12253 12258      1
 12159 12253 12259      1
 12160 12254 12255      1
 12161 12254 12260      1
 12162 12254 12263      1
 12163 12255 12256      1
 12164 12255 12257      2
 12165 12256 12261      1
 12166 12256 12262      1
 12167 12263 12264      1
 12168 12263 12268      1
 12169 12263 12269      1
 12170 12264 12265      1
 12171 12264 12270      1
 12172 12264 12273      1
 12173 12265 12266      1
 12174 12265 12267      2
 12175 12266 12271      1
 12176 12266 12272      1
 12177 12273 12274      1
 12178 12273 12278      1
 12179 12273 12279      1
 12180 12274 12275      1
 12181 12274 12280      1
 12182 12274 12283      1
 12183 12275 12276      1
 12184 12275 12277      2
 12185 12276 12281      1
 12186 12276 12282      1
 12187 12283 12284      1
 12188 12283 12288      1
 12189 12283 12289      1
 12190 12284 12285      1
 12191 12284 12290      1
 12192 12284 12293      1
 12193 12285 12286      1
 12194 12285 12287      2
 12195 12286 12291      1
 12196 12286 12292      1
 12197 12293 12294      1
 12198 12293 12298      1
 12199 12293 12299      1
 12200 12294 12295      1
 12201 12294 12300      1
 12202 12294 12303      1
 12203 12295 12296      1
 12204 12295 12297      2
 12205 12296 12301      1
 12206 12296 12302      1
 12207 12303 12304      1
 12208 12303 12308      1
 12209 12303 12309      1
 12210 12304 12305      1
 12211 12304 12310      1
 12212 12304 12313      1
 12213 12305 12306      1
 12214 12305 12307      2
 12215 12306 12311      1
 12216 12306 12312      1
 12217 12313 12314      1
 12218 12313 12318      1
 12219 12313 12319      1
 12220 12314 12315      1
 12221 12314 12320      1
 12222 12314 12323      1
 12223 12315 12316      1
 12224 12315 12317      2
 12225 12316 12321      1
 12226 12316 12322      1
 12227 12323 12324      1
 12228 12323 12328      1
 12229 12323 12329      1
 12230 12324 12325      1
 12231 12324 12330      1
 12232 12324 12333      1
 12233 12325 12326      1
 12234 12325 12327      2
 12235 12326 12331      1
 12236 12326 12332      1
 12237 12333 12334      1
 12238 12333 12338      1
 12239 12333 12339      1
 12240 12334 12335      1
 12241 12334 12340      1
 12242 12334 12343      1
 12243 12335 12336      1
 12244 12335 12337      2
 12245 12336 12341      1
 12246 12336 12342      1
 12247 12343 12344      1
 12248 12343 12348      1
 12249 12343 12349      1
 12250 12344 12345      1
 12251 12344 12350      1
 12252 12344 12353      1
 12253 12345 12346      1
 12254 12345 12347      2
 12255 12346 12351      1
 12256 12346 12352      1
 12257 12353 12354      1
 12258 12353 12358      1
 12259 12353 12359      1
 12260 12354 12355      1
 12261 12354 12360      1
 12262 12354 12363      1
 12263 12355 12356      1
 12264 12355 12357      2
 12265 12356 12361      1
 12266 12356 12362      1
 12267 12363 12364      1
 12268 12363 12368      1
 12269 12363 12369      1
 12270 12364 12365      1
 12271 12364 12370      1
 12272 12365 12366      1
 12273 12365 12367      2
 12274 12366 12371      1
 12275 12366 12372      1
 12276 12373 12374      1
 12277 12373 12378      1
 12278 12373 12379      1
 12279 12374 12375      1
 12280 12374 12380      1
 12281 12374 12383      1
 12282 12375 12376      1
 12283 12375 12377      2
 12284 12376 12381      1
 12285 12376 12382      1
 12286 12383 12384      1
 12287 12383 12388      1
 12288 12383 12389      1
 12289 12384 12385      1
 12290 12384 12390      1
 12291 12384 12393      1
 12292 12385 12386      1
 12293 12385 12387      2
 12294 12386 12391      1
 12295 12386 12392      1
 12296 12393 12394      1
 12297 12393 12398      1
 12298 12393 12399      1
 12299 12394 12395      1
 12300 12394 12400      1
 12301 12394 12403      1
 12302 12395 12396      1
 12303 12395 12397      2
 12304 12396 12401      1
 12305 12396 12402      1
 12306 12403 12404      1
 12307 12403 12408      1
 12308 12403 12409      1
 12309 12404 12405      1
 12310 12404 12410      1
 12311 12404 12413      1
 12312 12405 12406      1
 12313 12405 12407      2
 12314 12406 12411      1
 12315 12406 12412      1
 12316 12413 12414      1
 12317 12413 12418      1
 12318 12413 12419      1
 12319 12414 12415      1
 12320 12414 12420      1
 12321 12414 12423      1
 12322 12415 12416      1
 12323 12415 12417      2
 12324 12416 12421      1
 12325 12416 12422      1
 12326 12423 12424      1
 12327 12423 12428      1
 12328 12423 12429      1
 12329 12424 12425      1
 12330 12424 12430      1
 12331 12424 12433      1
 12332 12425 12426      1
 12333 12425 12427      2
 12334 12426 12431      1
 12335 12426 12432      1
 12336 12433 12434      1
 12337 12433 12438      1
 12338 12433 12439      1
 12339 12434 12435      1
 12340 12434 12440      1
 12341 12434 12443      1
 12342 12435 12436      1
 12343 12435 12437      2
 12344 12436 12441      1
 12345 12436 12442      1
 12346 12443 12444      1
 12347 12443 12448      1
 12348 12443 12449      1
 12349 12444 12445      1
 12350 12444 12450      1
 12351 12444 12453      1
 12352 12445 12446      1
 12353 12445 12447      2
 12354 12446 12451      1
 12355 12446 12452      1
 12356 12453 12454      1
 12357 12453 12458      1
 12358 12453 12459      1
 12359 12454 12455      1
 12360 12454 12460      1
 12361 12454 12463      1
 12362 12455 12456      1
 12363 12455 12457      2
 12364 12456 12461      1
 12365 12456 12462      1
 12366 12463 12464      1
 12367 12463 12468      1
 12368 12463 12469      1
 12369 12464 12465      1
 12370 12464 12470      1
 12371 12464 12473      1
 12372 12465 12466      1
 12373 12465 12467      2
 12374 12466 12471      1
 12375 12466 12472      1
 12376 12473 12474      1
 12377 12473 12478      1
 12378 12473 12479      1
 12379 12474 12475      1
 12380 12474 12480      1
 12381 12474 12483      1
 12382 12475 12476      1
 12383 12475 12477      2
 12384 12476 12481      1
 12385 12476 12482      1
 12386 12483 12484      1
 12387 12483 12488      1
 12388 12483 12489      1
 12389 12484 12485      1
 12390 12484 12490      1
 12391 12484 12493      1
 12392 12485 12486      1
 12393 12485 12487      2
 12394 12486 12491      1
 12395 12486 12492      1
 12396 12493 12494      1
 12397 12493 12498      1
 12398 12493 12499      1
 12399 12494 12495      1
 12400 12494 12500      1
 12401 12494 12503      1
 12402 12495 12496      1
 12403 12495 12497      2
 12404 12496 12501      1
 12405 12496 12502      1
 12406 12503 12504      1
 12407 12503 12508      1
 12408 12503 12509      1
 12409 12504 12505      1
 12410 12504 12510      1
 12411 12504 12513      1
 12412 12505 12506      1
 12413 12505 12507      2
 12414 12506 12511      1
 12415 12506 12512      1
 12416 12513 12514      1
 12417 12513 12518      1
 12418 12513 12519      1
 12419 12514 12515      1
 12420 12514 12520      1
 12421 12514 12523      1
 12422 12515 12516      1
 12423 12515 12517      2
 12424 12516 12521      1
 12425 12516 12522      1
 12426 12523 12524      1
 12427 12523 12528      1
 12428 12523 12529      1
 12429 12524 12525      1
 12430 12524 12530      1
 12431 12524 12533      1
 12432 12525 12526      1
 12433 12525 12527      2
 12434 12526 12531      1
 12435 12526 12532      1
 12436 12533 12534      1
 12437 12533 12538      1
 12438 12533 12539      1
 12439 12534 12535      1
 12440 12534 12540      1
 12441 12534 12543      1
 12442 12535 12536      1
 12443 12535 12537      2
 12444 12536 12541      1
 12445 12536 12542      1
 12446 12543 12544      1
 12447 12543 12548      1
 12448 12543 12549      1
 12449 12544 12545      1
 12450 12544 12550      1
 12451 12544 12553      1
 12452 12545 12546      1
 12453 12545 12547      2
 12454 12546 12551      1
 12455 12546 12552      1
 12456 12553 12554      1
 12457 12553 12558      1
 12458 12553 12559      1
 12459 12554 12555      1
 12460 12554 12560      1
 12461 12554 12563      1
 12462 12555 12556      1
 12463 12555 12557      2
 12464 12556 12561      1
 12465 12556 12562      1
 12466 12563 12564      1
 12467 12563 12568      1
 12468 12563 12569      1
 12469 12564 12565      1
 12470 12564 12570      1
 12471 12564 12573      1
 12472 12565 12566      1
 12473 12565 12567      2
 12474 12566 12571      1
 12475 12566 12572      1
 12476 12573 12574      1
 12477 12573 12578      1
 12478 12573 12579      1
 12479 12574 12575      1
 12480 12574 12580      1
 12481 12575 12576      1
 12482 12575 12577      2
 12483 12576 12581      1
 12484 12576 12582      1
 12485 12583 12584      1
 12486 12583 12588      1
 12487 12583 12589      1
 12488 12584 12585      1
 12489 12584 12590      1
 12490 12584 12593      1
 12491 12585 12586      1
 12492 12585 12587      2
 12493 12586 12591      1
 12494 12586 12592      1
 12495 12593 12594      1
 12496 12593 12598      1
 12497 12593 12599      1
 12498 12594 12595      1
 12499 12594 12600      1
 12500 12594 12603      1
 12501 12595 12596      1
 12502 12595 12597      2
 12503 12596 12601      1
 12504 12596 12602      1
 12505 12603 12604      1
 12506 12603 12608      1
 12507 12603 12609      1
 12508 12604 12605      1
 12509 12604 12610      1
 12510 12604 12613      1
 12511 12605 12606      1
 12512 12605 12607      2
 12513 12606 12611      1
 12514 12606 12612      1
 12515 12613 12614      1
 12516 12613 12618      1
 12517 12613 12619      1
 12518 12614 12615      1
 12519 12614 12620      1
 12520 12614 12623      1
 12521 12615 12616      1
 12522 12615 12617      2
 12523 12616 12621      1
 12524 12616 12622      1
 12525 12623 12624      1
 12526 12623 12628      1
 12527 12623 12629      1
 12528 12624 12625      1
 12529 12624 12630      1
 12530 12624 12633      1
 12531 12625 12626      1
 12532 12625 12627      2
 12533 12626 12631      1
 12534 12626 12632      1
 12535 12633 12634      1
 12536 12633 12638      1
 12537 12633 12639      1
 12538 12634 12635      1
 12539 12634 12640      1
 12540 12634 12643      1
 12541 12635 12636      1
 12542 12635 12637      2
 12543 12636 12641      1
 12544 12636 12642      1
 12545 12643 12644      1
 12546 12643 12648      1
 12547 12643 12649      1
 12548 12644 12645      1
 12549 12644 12650      1
 12550 12644 12653      1
 12551 12645 12646      1
 12552 12645 12647      2
 12553 12646 12651      1
 12554 12646 12652      1
 12555 12653 12654      1
 12556 12653 12658      1
 12557 12653 12659      1
 12558 12654 12655      1
 12559 12654 12660      1
 12560 12654 12663      1
 12561 12655 12656      1
 12562 12655 12657      2
 12563 12656 12661      1
 12564 12656 12662      1
 12565 12663 12664      1
 12566 12663 12668      1
 12567 12663 12669      1
 12568 12664 12665      1
 12569 12664 12670      1
 12570 12664 12673      1
 12571 12665 12666      1
 12572 12665 12667      2
 12573 12666 12671      1
 12574 12666 12672      1
 12575 12673 12674      1
 12576 12673 12678      1
 12577 12673 12679      1
 12578 12674 12675      1
 12579 12674 12680      1
 12580 12674 12683      1
 12581 12675 12676      1
 12582 12675 12677      2
 12583 12676 12681      1
 12584 12676 12682      1
 12585 12683 12684      1
 12586 12683 12688      1
 12587 12683 12689      1
 12588 12684 12685      1
 12589 12684 12690      1
 12590 12684 12693      1
 12591 12685 12686      1
 12592 12685 12687      2
 12593 12686 12691      1
 12594 12686 12692      1
 12595 12693 12694      1
 12596 12693 12698      1
 12597 12693 12699      1
 12598 12694 12695      1
 12599 12694 12700      1
 12600 12694 12703      1
 12601 12695 12696      1
 12602 12695 12697      2
 12603 12696 12701      1
 12604 12696 12702      1
 12605 12703 12704      1
 12606 12703 12708      1
 12607 12703 12709      1
 12608 12704 12705      1
 12609 12704 12710      1
 12610 12704 12713      1
 12611 12705 12706      1
 12612 12705 12707      2
 12613 12706 12711      1
 12614 12706 12712      1
 12615 12713 12714      1
 12616 12713 12718      1
 12617 12713 12719      1
 12618 12714 12715      1
 12619 12714 12720      1
 12620 12714 12723      1
 12621 12715 12716      1
 12622 12715 12717      2
 12623 12716 12721      1
 12624 12716 12722      1
 12625 12723 12724      1
 12626 12723 12728      1
 12627 12723 12729      1
 12628 12724 12725      1
 12629 12724 12730      1
 12630 12724 12733      1
 12631 12725 12726      1
 12632 12725 12727      2
 12633 12726 12731      1
 12634 12726 12732      1
 12635 12733 12734      1
 12636 12733 12738      1
 12637 12733 12739      1
 12638 12734 12735      1
 12639 12734 12740      1
 12640 12734 12743      1
 12641 12735 12736      1
 12642 12735 12737      2
 12643 12736 12741      1
 12644 12736 12742      1
 12645 12743 12744      1
 12646 12743 12748      1
 12647 12743 12749      1
 12648 12744 12745      1
 12649 12744 12750      1
 12650 12744 12753      1
 12651 12745 12746      1
 12652 12745 12747      2
 12653 12746 12751      1
 12654 12746 12752      1
 12655 12753 12754      1
 12656 12753 12758      1
 12657 12753 12759      1
 12658 12754 12755      1
 12659 12754 12760      1
 12660 12754 12763      1
 12661 12755 12756      1
 12662 12755 12757      2
 12663 12756 12761      1
 12664 12756 12762      1
 12665 12763 12764      1
 12666 12763 12768      1
 12667 12763 12769      1
 12668 12764 12765      1
 12669 12764 12770      1
 12670 12764 12773      1
 12671 12765 12766      1
 12672 12765 12767      2
 12673 12766 12771      1
 12674 12766 12772      1
 12675 12773 12774      1
 12676 12773 12778      1
 12677 12773 12779      1
 12678 12774 12775      1
 12679 12774 12780      1
 12680 12774 12783      1
 12681 12775 12776      1
 12682 12775 12777      2
 12683 12776 12781      1
 12684 12776 12782      1
 12685 12783 12784      1
 12686 12783 12788      1
 12687 12783 12789      1
 12688 12784 12785      1
 12689 12784 12790      1
 12690 12784 12793      1
 12691 12785 12786      1
 12692 12785 12787      2
 12693 12786 12791      1
 12694 12786 12792      1
 12695 12793 12794      1
 12696 12793 12798      1
 12697 12793 12799      1
 12698 12794 12795      1
 12699 12794 12800      1
 12700 12794 12803      1
 12701 12795 12796      1
 12702 12795 12797      2
 12703 12796 12801      1
 12704 12796 12802      1
 12705 12803 12804      1
 12706 12803 12808      1
 12707 12803 12809      1
 12708 12804 12805      1
 12709 12804 12810      1
 12710 12805 12806      1
 12711 12805 12807      2
 12712 12806 12811      1
 12713 12806 12812      1
 12714 12813 12814      1
 12715 12813 12818      1
 12716 12813 12819      1
 12717 12814 12815      1
 12718 12814 12820      1
 12719 12814 12823      1
 12720 12815 12816      1
 12721 12815 12817      2
 12722 12816 12821      1
 12723 12816 12822      1
 12724 12823 12824      1
 12725 12823 12828      1
 12726 12823 12829      1
 12727 12824 12825      1
 12728 12824 12830      1
 12729 12824 12833      1
 12730 12825 12826      1
 12731 12825 12827      2
 12732 12826 12831      1
 12733 12826 12832      1
 12734 12833 12834      1
 12735 12833 12838      1
 12736 12833 12839      1
 12737 12834 12835      1
 12738 12834 12840      1
 12739 12834 12843      1
 12740 12835 12836      1
 12741 12835 12837      2
 12742 12836 12841      1
 12743 12836 12842      1
 12744 12843 12844      1
 12745 12843 12848      1
 12746 12843 12849      1
 12747 12844 12845      1
 12748 12844 12850      1
 12749 12844 12853      1
 12750 12845 12846      1
 12751 12845 12847      2
 12752 12846 12851      1
 12753 12846 12852      1
 12754 12853 12854      1
 12755 12853 12858      1
 12756 12853 12859      1
 12757 12854 12855      1
 12758 12854 12860      1
 12759 12854 12863      1
 12760 12855 12856      1
 12761 12855 12857      2
 12762 12856 12861      1
 12763 12856 12862      1
 12764 12863 12864      1
 12765 12863 12868      1
 12766 12863 12869      1
 12767 12864 12865      1
 12768 12864 12870      1
 12769 12864 12873      1
 12770 12865 12866      1
 12771 12865 12867      2
 12772 12866 12871      1
 12773 12866 12872      1
 12774 12873 12874      1
 12775 12873 12878      1
 12776 12873 12879      1
 12777 12874 12875      1
 12778 12874 12880      1
 12779 12874 12883      1
 12780 12875 12876      1
 12781 12875 12877      2
 12782 12876 12881      1
 12783 12876 12882      1
 12784 12883 12884      1
 12785 12883 12888      1
 12786 12883 12889      1
 12787 12884 12885      1
 12788 12884 12890      1
 12789 12884 12893      1
 12790 12885 12886      1
 12791 12885 12887      2
 12792 12886 12891      1
 12793 12886 12892      1
 12794 12893 12894      1
 12795 12893 12898      1
 12796 12893 12899      1
 12797 12894 12895      1
 12798 12894 12900      1
 12799 12894 12903      1
 12800 12895 12896      1
 12801 12895 12897      2
 12802 12896 12901      1
 12803 12896 12902      1
 12804 12903 12904      1
 12805 12903 12908      1
 12806 12903 12909      1
 12807 12904 12905      1
 12808 12904 12910      1
 12809 12904 12913      1
 12810 12905 12906      1
 12811 12905 12907      2
 12812 12906 12911      1
 12813 12906 12912      1
 12814 12913 12914      1
 12815 12913 12918      1
 12816 12913 12919      1
 12817 12914 12915      1
 12818 12914 12920      1
 12819 12914 12923      1
 12820 12915 12916      1
 12821 12915 12917      2
 12822 12916 12921      1
 12823 12916 12922      1
 12824 12923 12924      1
 12825 12923 12928      1
 12826 12923 12929      1
 12827 12924 12925      1
 12828 12924 12930      1
 12829 12924 12933      1
 12830 12925 12926      1
 12831 12925 12927      2
 12832 12926 12931      1
 12833 12926 12932      1
 12834 12933 12934      1
 12835 12933 12938      1
 12836 12933 12939      1
 12837 12934 12935      1
 12838 12934 12940      1
 12839 12935 12936      1
 12840 12935 12937      2
 12841 12936 12941      1
 12842 12936 12942      1
 12843 12943 12944      1
 12844 12943 12948      1
 12845 12943 12949      1
 12846 12944 12945      1
 12847 12944 12950      1
 12848 12944 12953      1
 12849 12945 12946      1
 12850 12945 12947      2
 12851 12946 12951      1
 12852 12946 12952      1
 12853 12953 12954      1
 12854 12953 12958      1
 12855 12953 12959      1
 12856 12954 12955      1
 12857 12954 12960      1
 12858 12954 12963      1
 12859 12955 12956      1
 12860 12955 12957      2
 12861 12956 12961      1
 12862 12956 12962      1
 12863 12963 12964      1
 12864 12963 12968      1
 12865 12963 12969      1
 12866 12964 12965      1
 12867 12964 12970      1
 12868 12964 12973      1
 12869 12965 12966      1
 12870 12965 12967      2
 12871 12966 12971      1
 12872 12966 12972      1
 12873 12973 12974      1
 12874 12973 12978      1
 12875 12973 12979      1
 12876 12974 12975      1
 12877 12974 12980      1
 12878 12974 12983      1
 12879 12975 12976      1
 12880 12975 12977      2
 12881 12976 12981      1
 12882 12976 12982      1
 12883 12983 12984      1
 12884 12983 12988      1
 12885 12983 12989      1
 12886 12984 12985      1
 12887 12984 12990      1
 12888 12984 12993      1
 12889 12985 12986      1
 12890 12985 12987      2
 12891 12986 12991      1
 12892 12986 12992      1
 12893 12993 12994      1
 12894 12993 12998      1
 12895 12993 12999      1
 12896 12994 12995      1
 12897 12994 13000      1
 12898 12994 13003      1
 12899 12995 12996      1
 12900 12995 12997      2
 12901 12996 13001      1
 12902 12996 13002      1
 12903 13003 13004      1
 12904 13003 13008      1
 12905 13003 13009      1
 12906 13004 13005      1
 12907 13004 13010      1
 12908 13004 13013      1
 12909 13005 13006      1
 12910 13005 13007      2
 12911 13006 13011      1
 12912 13006 13012      1
 12913 13013 13014      1
 12914 13013 13018      1
 12915 13013 13019      1
 12916 13014 13015      1
 12917 13014 13020      1
 12918 13014 13023      1
 12919 13015 13016      1
 12920 13015 13017      2
 12921 13016 13021      1
 12922 13016 13022      1
 12923 13023 13024      1
 12924 13023 13028      1
 12925 13023 13029      1
 12926 13024 13025      1
 12927 13024 13030      1
 12928 13024 13033      1
 12929 13025 13026      1
 12930 13025 13027      2
 12931 13026 13031      1
 12932 13026 13032      1
 12933 13033 13034      1
 12934 13033 13038      1
 12935 13033 13039      1
 12936 13034 13035      1
 12937 13034 13040      1
 12938 13034 13043      1
 12939 13035 13036      1
 12940 13035 13037      2
 12941 13036 13041      1
 12942 13036 13042      1
 12943 13043 13044      1
 12944 13043 13048      1
 12945 13043 13049      1
 12946 13044 13045      1
 12947 13044 13050      1
 12948 13044 13053      1
 12949 13045 13046      1
 12950 13045 13047      2
 12951 13046 13051      1
 12952 13046 13052      1
 12953 13053 13054      1
 12954 13053 13058      1
 12955 13053 13059      1
 12956 13054 13055      1
 12957 13054 13060      1
 12958 13054 13063      1
 12959 13055 13056      1
 12960 13055 13057      2
 12961 13056 13061      1
 12962 13056 13062      1
 12963 13063 13064      1
 12964 13063 13068      1
 12965 13063 13069      1
 12966 13064 13065      1
 12967 13064 13070      1
 12968 13064 13073      1
 12969 13065 13066      1
 12970 13065 13067      2
 12971 13066 13071      1
 12972 13066 13072      1
 12973 13073 13074      1
 12974 13073 13078      1
 12975 13073 13079      1
 12976 13074 13075      1
 12977 13074 13080      1
 12978 13074 13083      1
 12979 13075 13076      1
 12980 13075 13077      2
 12981 13076 13081      1
 12982 13076 13082      1
 12983 13083 13084      1
 12984 13083 13088      1
 12985 13083 13089      1
 12986 13084 13085      1
 12987 13084 13090      1
 12988 13084 13093      1
 12989 13085 13086      1
 12990 13085 13087      2
 12991 13086 13091      1
 12992 13086 13092      1
 12993 13093 13094      1
 12994 13093 13098      1
 12995 13093 13099      1
 12996 13094 13095      1
 12997 13094 13100      1
 12998 13094 13103      1
 12999 13095 13096      1
 13000 13095 13097      2
 13001 13096 13101      1
 13002 13096 13102      1
 13003 13103 13104      1
 13004 13103 13108      1
 13005 13103 13109      1
 13006 13104 13105      1
 13007 13104 13110      1
 13008 13104 13113      1
 13009 13105 13106      1
 13010 13105 13107      2
 13011 13106 13111      1
 13012 13106 13112      1
 13013 13113 13114      1
 13014 13113 13118      1
 13015 13113 13119      1
 13016 13114 13115      1
 13017 13114 13120      1
 13018 13114 13123      1
 13019 13115 13116      1
 13020 13115 13117      2
 13021 13116 13121      1
 13022 13116 13122      1
 13023 13123 13124      1
 13024 13123 13128      1
 13025 13123 13129      1
 13026 13124 13125      1
 13027 13124 13130      1
 13028 13124 13133      1
 13029 13125 13126      1
 13030 13125 13127      2
 13031 13126 13131      1
 13032 13126 13132      1
 13033 13133 13134      1
 13034 13133 13138      1
 13035 13133 13139      1
 13036 13134 13135      1
 13037 13134 13140      1
 13038 13134 13143      1
 13039 13135 13136      1
 13040 13135 13137      2
 13041 13136 13141      1
 13042 13136 13142      1
 13043 13143 13144      1
 13044 13143 13148      1
 13045 13143 13149      1
 13046 13144 13145      1
 13047 13144 13150      1
 13048 13144 13153      1
 13049 13145 13146      1
 13050 13145 13147      2
 13051 13146 13151      1
 13052 13146 13152      1
 13053 13153 13154      1
 13054 13153 13158      1
 13055 13153 13159      1
 13056 13154 13155      1
 13057 13154 13160      1
 13058 13154 13163      1
 13059 13155 13156      1
 13060 13155 13157      2
 13061 13156 13161      1
 13062 13156 13162      1
 13063 13163 13164      1
 13064 13163 13168      1
 13065 13163 13169      1
 13066 13164 13165      1
 13067 13164 13170      1
 13068 13164 13173      1
 13069 13165 13166      1
 13070 13165 13167      2
 13071 13166 13171      1
 13072 13166 13172      1
 13073 13173 13174      1
 13074 13173 13178      1
 13075 13173 13179      1
 13076 13174 13175      1
 13077 13174 13180      1
 13078 13174 13183      1
 13079 13175 13176      1
 13080 13175 13177      2
 13081 13176 13181      1
 13082 13176 13182      1
 13083 13183 13184      1
 13084 13183 13188      1
 13085 13183 13189      1
 13086 13184 13185      1
 13087 13184 13190      1
 13088 13184 13193      1
 13089 13185 13186      1
 13090 13185 13187      2
 13091 13186 13191      1
 13092 13186 13192      1
 13093 13193 13194      1
 13094 13193 13198      1
 13095 13193 13199      1
 13096 13194 13195      1
 13097 13194 13200      1
 13098 13194 13203      1
 13099 13195 13196      1
 13100 13195 13197      2
 13101 13196 13201      1
 13102 13196 13202      1
 13103 13203 13204      1
 13104 13203 13208      1
 13105 13203 13209      1
 13106 13204 13205      1
 13107 13204 13210      1
 13108 13204 13213      1
 13109 13205 13206      1
 13110 13205 13207      2
 13111 13206 13211      1
 13112 13206 13212      1
 13113 13213 13214      1
 13114 13213 13218      1
 13115 13213 13219      1
 13116 13214 13215      1
 13117 13214 13220      1
 13118 13214 13223      1
 13119 13215 13216      1
 13120 13215 13217      2
 13121 13216 13221      1
 13122 13216 13222      1
 13123 13223 13224      1
 13124 13223 13228      1
 13125 13223 13229      1
 13126 13224 13225      1
 13127 13224 13230      1
 13128 13224 13233      1
 13129 13225 13226      1
 13130 13225 13227      2
 13131 13226 13231      1
 13132 13226 13232      1
 13133 13233 13234      1
 13134 13233 13238      1
 13135 13233 13239      1
 13136 13234 13235      1
 13137 13234 13240      1
 13138 13234 13243      1
 13139 13235 13236      1
 13140 13235 13237      2
 13141 13236 13241      1
 13142 13236 13242      1
 13143 13243 13244      1
 13144 13243 13248      1
 13145 13243 13249      1
 13146 13244 13245      1
 13147 13244 13250      1
 13148 13244 13253      1
 13149 13245 13246      1
 13150 13245 13247      2
 13151 13246 13251      1
 13152 13246 13252      1
 13153 13253 13254      1
 13154 13253 13258      1
 13155 13253 13259      1
 13156 13254 13255      1
 13157 13254 13260      1
 13158 13254 13263      1
 13159 13255 13256      1
 13160 13255 13257      2
 13161 13256 13261      1
 13162 13256 13262      1
 13163 13263 13264      1
 13164 13263 13268      1
 13165 13263 13269      1
 13166 13264 13265      1
 13167 13264 13270      1
 13168 13264 13273      1
 13169 13265 13266      1
 13170 13265 13267      2
 13171 13266 13271      1
 13172 13266 13272      1
 13173 13273 13274      1
 13174 13273 13278      1
 13175 13273 13279      1
 13176 13274 13275      1
 13177 13274 13280      1
 13178 13274 13283      1
 13179 13275 13276      1
 13180 13275 13277      2
 13181 13276 13281      1
 13182 13276 13282      1
 13183 13283 13284      1
 13184 13283 13288      1
 13185 13283 13289      1
 13186 13284 13285      1
 13187 13284 13290      1
 13188 13284 13293      1
 13189 13285 13286      1
 13190 13285 13287      2
 13191 13286 13291      1
 13192 13286 13292      1
 13193 13293 13294      1
 13194 13293 13298      1
 13195 13293 13299      1
 13196 13294 13295      1
 13197 13294 13300      1
 13198 13294 13303      1
 13199 13295 13296      1
 13200 13295 13297      2
 13201 13296 13301      1
 13202 13296 13302      1
 13203 13303 13304      1
 13204 13303 13308      1
 13205 13303 13309      1
 13206 13304 13305      1
 13207 13304 13310      1
 13208 13304 13313      1
 13209 13305 13306      1
 13210 13305 13307      2
 13211 13306 13311      1
 13212 13306 13312      1
 13213 13313 13314      1
 13214 13313 13318      1
 13215 13313 13319      1
 13216 13314 13315      1
 13217 13314 13320      1
 13218 13314 13323      1
 13219 13315 13316      1
 13220 13315 13317      2
 13221 13316 13321      1
 13222 13316 13322      1
 13223 13323 13324      1
 13224 13323 13328      1
 13225 13323 13329      1
 13226 13324 13325      1
 13227 13324 13330      1
 13228 13324 13333      1
 13229 13325 13326      1
 13230 13325 13327      2
 13231 13326 13331      1
 13232 13326 13332      1
 13233 13333 13334      1
 13234 13333 13338      1
 13235 13333 13339      1
 13236 13334 13335      1
 13237 13334 13340      1
 13238 13334 13343      1
 13239 13335 13336      1
 13240 13335 13337      2
 13241 13336 13341      1
 13242 13336 13342      1
 13243 13343 13344      1
 13244 13343 13348      1
 13245 13343 13349      1
 13246 13344 13345      1
 13247 13344 13350      1
 13248 13344 13353      1
 13249 13345 13346      1
 13250 13345 13347      2
 13251 13346 13351      1
 13252 13346 13352      1
 13253 13353 13354      1
 13254 13353 13358      1
 13255 13353 13359      1
 13256 13354 13355      1
 13257 13354 13360      1
 13258 13354 13363      1
 13259 13355 13356      1
 13260 13355 13357      2
 13261 13356 13361      1
 13262 13356 13362      1
 13263 13363 13364      1
 13264 13363 13368      1
 13265 13363 13369      1
 13266 13364 13365      1
 13267 13364 13370      1
 13268 13364 13373      1
 13269 13365 13366      1
 13270 13365 13367      2
 13271 13366 13371      1
 13272 13366 13372      1
 13273 13373 13374      1
 13274 13373 13378      1
 13275 13373 13379      1
 13276 13374 13375      1
 13277 13374 13380      1
 13278 13374 13383      1
 13279 13375 13376      1
 13280 13375 13377      2
 13281 13376 13381      1
 13282 13376 13382      1
 13283 13383 13384      1
 13284 13383 13388      1
 13285 13383 13389      1
 13286 13384 13385      1
 13287 13384 13390      1
 13288 13384 13393      1
 13289 13385 13386      1
 13290 13385 13387      2
 13291 13386 13391      1
 13292 13386 13392      1
 13293 13393 13394      1
 13294 13393 13398      1
 13295 13393 13399      1
 13296 13394 13395      1
 13297 13394 13400      1
 13298 13394 13403      1
 13299 13395 13396      1
 13300 13395 13397      2
 13301 13396 13401      1
 13302 13396 13402      1
 13303 13403 13404      1
 13304 13403 13408      1
 13305 13403 13409      1
 13306 13404 13405      1
 13307 13404 13410      1
 13308 13404 13413      1
 13309 13405 13406      1
 13310 13405 13407      2
 13311 13406 13411      1
 13312 13406 13412      1
 13313 13413 13414      1
 13314 13413 13418      1
 13315 13413 13419      1
 13316 13414 13415      1
 13317 13414 13420      1
 13318 13414 13423      1
 13319 13415 13416      1
 13320 13415 13417      2
 13321 13416 13421      1
 13322 13416 13422      1
 13323 13423 13424      1
 13324 13423 13428      1
 13325 13423 13429      1
 13326 13424 13425      1
 13327 13424 13430      1
 13328 13424 13433      1
 13329 13425 13426      1
 13330 13425 13427      2
 13331 13426 13431      1
 13332 13426 13432      1
 13333 13433 13434      1
 13334 13433 13438      1
 13335 13433 13439      1
 13336 13434 13435      1
 13337 13434 13440      1
 13338 13434 13443      1
 13339 13435 13436      1
 13340 13435 13437      2
 13341 13436 13441      1
 13342 13436 13442      1
 13343 13443 13444      1
 13344 13443 13448      1
 13345 13443 13449      1
 13346 13444 13445      1
 13347 13444 13450      1
 13348 13444 13453      1
 13349 13445 13446      1
 13350 13445 13447      2
 13351 13446 13451      1
 13352 13446 13452      1
 13353 13453 13454      1
 13354 13453 13458      1
 13355 13453 13459      1
 13356 13454 13455      1
 13357 13454 13460      1
 13358 13454 13463      1
 13359 13455 13456      1
 13360 13455 13457      2
 13361 13456 13461      1
 13362 13456 13462      1
 13363 13463 13464      1
 13364 13463 13468      1
 13365 13463 13469      1
 13366 13464 13465      1
 13367 13464 13470      1
 13368 13465 13466      1
 13369 13465 13467      2
 13370 13466 13471      1
 13371 13466 13472      1
 13372 13473 13474      1
 13373 13473 13478      1
 13374 13473 13479      1
 13375 13474 13475      1
 13376 13474 13480      1
 13377 13474 13483      1
 13378 13475 13476      1
 13379 13475 13477      2
 13380 13476 13481      1
 13381 13476 13482      1
 13382 13483 13484      1
 13383 13483 13488      1
 13384 13483 13489      1
 13385 13484 13485      1
 13386 13484 13490      1
 13387 13484 13493      1
 13388 13485 13486      1
 13389 13485 13487      2
 13390 13486 13491      1
 13391 13486 13492      1
 13392 13493 13494      1
 13393 13493 13498      1
 13394 13493 13499      1
 13395 13494 13495      1
 13396 13494 13500      1
 13397 13494 13503      1
 13398 13495 13496      1
 13399 13495 13497      2
 13400 13496 13501      1
 13401 13496 13502      1
 13402 13503 13504      1
 13403 13503 13508      1
 13404 13503 13509      1
 13405 13504 13505      1
 13406 13504 13510      1
 13407 13504 13513      1
 13408 13505 13506      1
 13409 13505 13507      2
 13410 13506 13511      1
 13411 13506 13512      1
 13412 13513 13514      1
 13413 13513 13518      1
 13414 13513 13519      1
 13415 13514 13515      1
 13416 13514 13520      1
 13417 13514 13523      1
 13418 13515 13516      1
 13419 13515 13517      2
 13420 13516 13521      1
 13421 13516 13522      1
 13422 13523 13524      1
 13423 13523 13528      1
 13424 13523 13529      1
 13425 13524 13525      1
 13426 13524 13530      1
 13427 13524 13533      1
 13428 13525 13526      1
 13429 13525 13527      2
 13430 13526 13531      1
 13431 13526 13532      1
 13432 13533 13534      1
 13433 13533 13538      1
 13434 13533 13539      1
 13435 13534 13535      1
 13436 13534 13540      1
 13437 13534 13543      1
 13438 13535 13536      1
 13439 13535 13537      2
 13440 13536 13541      1
 13441 13536 13542      1
 13442 13543 13544      1
 13443 13543 13548      1
 13444 13543 13549      1
 13445 13544 13545      1
 13446 13544 13550      1
 13447 13544 13553      1
 13448 13545 13546      1
 13449 13545 13547      2
 13450 13546 13551      1
 13451 13546 13552      1
 13452 13553 13554      1
 13453 13553 13558      1
 13454 13553 13559      1
 13455 13554 13555      1
 13456 13554 13560      1
 13457 13554 13563      1
 13458 13555 13556      1
 13459 13555 13557      2
 13460 13556 13561      1
 13461 13556 13562      1
 13462 13563 13564      1
 13463 13563 13568      1
 13464 13563 13569      1
 13465 13564 13565      1
 13466 13564 13570      1
 13467 13564 13573      1
 13468 13565 13566      1
 13469 13565 13567      2
 13470 13566 13571      1
 13471 13566 13572      1
 13472 13573 13574      1
 13473 13573 13578      1
 13474 13573 13579      1
 13475 13574 13575      1
 13476 13574 13580      1
 13477 13574 13583      1
 13478 13575 13576      1
 13479 13575 13577      2
 13480 13576 13581      1
 13481 13576 13582      1
 13482 13583 13584      1
 13483 13583 13588      1
 13484 13583 13589      1
 13485 13584 13585      1
 13486 13584 13590      1
 13487 13584 13593      1
 13488 13585 13586      1
 13489 13585 13587      2
 13490 13586 13591      1
 13491 13586 13592      1
 13492 13593 13594      1
 13493 13593 13598      1
 13494 13593 13599      1
 13495 13594 13595      1
 13496 13594 13600      1
 13497 13595 13596      1
 13498 13595 13597      2
 13499 13596 13601      1
 13500 13596 13602      1
 13501 13603 13604      1
 13502 13603 13608      1
 13503 13603 13609      1
 13504 13604 13605      1
 13505 13604 13610      1
 13506 13604 13613      1
 13507 13605 13606      1
 13508 13605 13607      2
 13509 13606 13611      1
 13510 13606 13612      1
 13511 13613 13614      1
 13512 13613 13618      1
 13513 13613 13619      1
 13514 13614 13615      1
 13515 13614 13620      1
 13516 13614 13623      1
 13517 13615 13616      1
 13518 13615 13617      2
 13519 13616 13621      1
 13520 13616 13622      1
 13521 13623 13624      1
 13522 13623 13628      1
 13523 13623 13629      1
 13524 13624 13625      1
 13525 13624 13630      1
 13526 13624 13633      1
 13527 13625 13626      1
 13528 13625 13627      2
 13529 13626 13631      1
 13530 13626 13632      1
 13531 13633 13634      1
 13532 13633 13638      1
 13533 13633 13639      1
 13534 13634 13635      1
 13535 13634 13640      1
 13536 13634 13643      1
 13537 13635 13636      1
 13538 13635 13637      2
 13539 13636 13641      1
 13540 13636 13642      1
 13541 13643 13644      1
 13542 13643 13648      1
 13543 13643 13649      1
 13544 13644 13645      1
 13545 13644 13650      1
 13546 13644 13653      1
 13547 13645 13646      1
 13548 13645 13647      2
 13549 13646 13651      1
 13550 13646 13652      1
 13551 13653 13654      1
 13552 13653 13658      1
 13553 13653 13659      1
 13554 13654 13655      1
 13555 13654 13660      1
 13556 13654 13663      1
 13557 13655 13656      1
 13558 13655 13657      2
 13559 13656 13661      1
 13560 13656 13662      1
 13561 13663 13664      1
 13562 13663 13668      1
 13563 13663 13669      1
 13564 13664 13665      1
 13565 13664 13670      1
 13566 13664 13673      1
 13567 13665 13666      1
 13568 13665 13667      2
 13569 13666 13671      1
 13570 13666 13672      1
 13571 13673 13674      1
 13572 13673 13678      1
 13573 13673 13679      1
 13574 13674 13675      1
 13575 13674 13680      1
 13576 13674 13683      1
 13577 13675 13676      1
 13578 13675 13677      2
 13579 13676 13681      1
 13580 13676 13682      1
 13581 13683 13684      1
 13582 13683 13688      1
 13583 13683 13689      1
 13584 13684 13685      1
 13585 13684 13690      1
 13586 13684 13693      1
 13587 13685 13686      1
 13588 13685 13687      2
 13589 13686 13691      1
 13590 13686 13692      1
 13591 13693 13694      1
 13592 13693 13698      1
 13593 13693 13699      1
 13594 13694 13695      1
 13595 13694 13700      1
 13596 13694 13703      1
 13597 13695 13696      1
 13598 13695 13697      2
 13599 13696 13701      1
 13600 13696 13702      1
 13601 13703 13704      1
 13602 13703 13708      1
 13603 13703 13709      1
 13604 13704 13705      1
 13605 13704 13710      1
 13606 13704 13713      1
 13607 13705 13706      1
 13608 13705 13707      2
 13609 13706 13711      1
 13610 13706 13712      1
 13611 13713 13714      1
 13612 13713 13718      1
 13613 13713 13719      1
 13614 13714 13715      1
 13615 13714 13720      1
 13616 13714 13723      1
 13617 13715 13716      1
 13618 13715 13717      2
 13619 13716 13721      1
 13620 13716 13722      1
 13621 13723 13724      1
 13622 13723 13728      1
 13623 13723 13729      1
 13624 13724 13725      1
 13625 13724 13730      1
 13626 13724 13733      1
 13627 13725 13726      1
 13628 13725 13727      2
 13629 13726 13731      1
 13630 13726 13732      1
 13631 13733 13734      1
 13632 13733 13738      1
 13633 13733 13739      1
 13634 13734 13735      1
 13635 13734 13740      1
 13636 13734 13743      1
 13637 13735 13736      1
 13638 13735 13737      2
 13639 13736 13741      1
 13640 13736 13742      1
 13641 13743 13744      1
 13642 13743 13748      1
 13643 13743 13749      1
 13644 13744 13745      1
 13645 13744 13750      1
 13646 13744 13753      1
 13647 13745 13746      1
 13648 13745 13747      2
 13649 13746 13751      1
 13650 13746 13752      1
 13651 13753 13754      1
 13652 13753 13758      1
 13653 13753 13759      1
 13654 13754 13755      1
 13655 13754 13760      1
 13656 13754 13763      1
 13657 13755 13756      1
 13658 13755 13757      2
 13659 13756 13761      1
 13660 13756 13762      1
 13661 13763 13764      1
 13662 13763 13768      1
 13663 13763 13769      1
 13664 13764 13765      1
 13665 13764 13770      1
 13666 13764 13773      1
 13667 13765 13766      1
 13668 13765 13767      2
 13669 13766 13771      1
 13670 13766 13772      1
 13671 13773 13774      1
 13672 13773 13778      1
 13673 13773 13779      1
 13674 13774 13775      1
 13675 13774 13780      1
 13676 13774 13783      1
 13677 13775 13776      1
 13678 13775 13777      2
 13679 13776 13781      1
 13680 13776 13782      1
 13681 13783 13784      1
 13682 13783 13788      1
 13683 13783 13789      1
 13684 13784 13785      1
 13685 13784 13790      1
 13686 13784 13793      1
 13687 13785 13786      1
 13688 13785 13787      2
 13689 13786 13791      1
 13690 13786 13792      1
 13691 13793 13794      1
 13692 13793 13798      1
 13693 13793 13799      1
 13694 13794 13795      1
 13695 13794 13800      1
 13696 13794 13803      1
 13697 13795 13796      1
 13698 13795 13797      2
 13699 13796 13801      1
 13700 13796 13802      1
 13701 13803 13804      1
 13702 13803 13808      1
 13703 13803 13809      1
 13704 13804 13805      1
 13705 13804 13810      1
 13706 13804 13813      1
 13707 13805 13806      1
 13708 13805 13807      2
 13709 13806 13811      1
 13710 13806 13812      1
 13711 13813 13814      1
 13712 13813 13818      1
 13713 13813 13819      1
 13714 13814 13815      1
 13715 13814 13820      1
 13716 13814 13823      1
 13717 13815 13816      1
 13718 13815 13817      2
 13719 13816 13821      1
 13720 13816 13822      1
 13721 13823 13824      1
 13722 13823 13828      1
 13723 13823 13829      1
 13724 13824 13825      1
 13725 13824 13830      1
 13726 13824 13833      1
 13727 13825 13826      1
 13728 13825 13827      2
 13729 13826 13831      1
 13730 13826 13832      1
 13731 13833 13834      1
 13732 13833 13838      1
 13733 13833 13839      1
 13734 13834 13835      1
 13735 13834 13840      1
 13736 13834 13843      1
 13737 13835 13836      1
 13738 13835 13837      2
 13739 13836 13841      1
 13740 13836 13842      1
 13741 13843 13844      1
 13742 13843 13848      1
 13743 13843 13849      1
 13744 13844 13845      1
 13745 13844 13850      1
 13746 13844 13853      1
 13747 13845 13846      1
 13748 13845 13847      2
 13749 13846 13851      1
 13750 13846 13852      1
 13751 13853 13854      1
 13752 13853 13858      1
 13753 13853 13859      1
 13754 13854 13855      1
 13755 13854 13860      1
 13756 13854 13863      1
 13757 13855 13856      1
 13758 13855 13857      2
 13759 13856 13861      1
 13760 13856 13862      1
 13761 13863 13864      1
 13762 13863 13868      1
 13763 13863 13869      1
 13764 13864 13865      1
 13765 13864 13870      1
 13766 13864 13873      1
 13767 13865 13866      1
 13768 13865 13867      2
 13769 13866 13871      1
 13770 13866 13872      1
 13771 13873 13874      1
 13772 13873 13878      1
 13773 13873 13879      1
 13774 13874 13875      1
 13775 13874 13880      1
 13776 13874 13883      1
 13777 13875 13876      1
 13778 13875 13877      2
 13779 13876 13881      1
 13780 13876 13882      1
 13781 13883 13884      1
 13782 13883 13888      1
 13783 13883 13889      1
 13784 13884 13885      1
 13785 13884 13890      1
 13786 13884 13893      1
 13787 13885 13886      1
 13788 13885 13887      2
 13789 13886 13891      1
 13790 13886 13892      1
 13791 13893 13894      1
 13792 13893 13898      1
 13793 13893 13899      1
 13794 13894 13895      1
 13795 13894 13900      1
 13796 13894 13903      1
 13797 13895 13896      1
 13798 13895 13897      2
 13799 13896 13901      1
 13800 13896 13902      1
 13801 13903 13904      1
 13802 13903 13908      1
 13803 13903 13909      1
 13804 13904 13905      1
 13805 13904 13910      1
 13806 13904 13913      1
 13807 13905 13906      1
 13808 13905 13907      2
 13809 13906 13911      1
 13810 13906 13912      1
 13811 13913 13914      1
 13812 13913 13918      1
 13813 13913 13919      1
 13814 13914 13915      1
 13815 13914 13920      1
 13816 13914 13923      1
 13817 13915 13916      1
 13818 13915 13917      2
 13819 13916 13921      1
 13820 13916 13922      1
 13821 13923 13924      1
 13822 13923 13928      1
 13823 13923 13929      1
 13824 13924 13925      1
 13825 13924 13930      1
 13826 13924 13933      1
 13827 13925 13926      1
 13828 13925 13927      2
 13829 13926 13931      1
 13830 13926 13932      1
 13831 13933 13934      1
 13832 13933 13938      1
 13833 13933 13939      1
 13834 13934 13935      1
 13835 13934 13940      1
 13836 13934 13943      1
 13837 13935 13936      1
 13838 13935 13937      2
 13839 13936 13941      1
 13840 13936 13942      1
 13841 13943 13944      1
 13842 13943 13948      1
 13843 13943 13949      1
 13844 13944 13945      1
 13845 13944 13950      1
 13846 13944 13953      1
 13847 13945 13946      1
 13848 13945 13947      2
 13849 13946 13951      1
 13850 13946 13952      1
 13851 13953 13954      1
 13852 13953 13958      1
 13853 13953 13959      1
 13854 13954 13955      1
 13855 13954 13960      1
 13856 13954 13963      1
 13857 13955 13956      1
 13858 13955 13957      2
 13859 13956 13961      1
 13860 13956 13962      1
 13861 13963 13964      1
 13862 13963 13968      1
 13863 13963 13969      1
 13864 13964 13965      1
 13865 13964 13970      1
 13866 13964 13973      1
 13867 13965 13966      1
 13868 13965 13967      2
 13869 13966 13971      1
 13870 13966 13972      1
 13871 13973 13974      1
 13872 13973 13978      1
 13873 13973 13979      1
 13874 13974 13975      1
 13875 13974 13980      1
 13876 13974 13983      1
 13877 13975 13976      1
 13878 13975 13977      2
 13879 13976 13981      1
 13880 13976 13982      1
 13881 13983 13984      1
 13882 13983 13988      1
 13883 13983 13989      1
 13884 13984 13985      1
 13885 13984 13990      1
 13886 13984 13993      1
 13887 13985 13986      1
 13888 13985 13987      2
 13889 13986 13991      1
 13890 13986 13992      1
 13891 13993 13994      1
 13892 13993 13998      1
 13893 13993 13999      1
 13894 13994 13995      1
 13895 13994 14000      1
 13896 13994 14003      1
 13897 13995 13996      1
 13898 13995 13997      2
 13899 13996 14001      1
 13900 13996 14002      1
 13901 14003 14004      1
 13902 14003 14008      1
 13903 14003 14009      1
 13904 14004 14005      1
 13905 14004 14010      1
 13906 14004 14013      1
 13907 14005 14006      1
 13908 14005 14007      2
 13909 14006 14011      1
 13910 14006 14012      1
 13911 14013 14014      1
 13912 14013 14018      1
 13913 14013 14019      1
 13914 14014 14015      1
 13915 14014 14020      1
 13916 14014 14023      1
 13917 14015 14016      1
 13918 14015 14017      2
 13919 14016 14021      1
 13920 14016 14022      1
 13921 14023 14024      1
 13922 14023 14028      1
 13923 14023 14029      1
 13924 14024 14025      1
 13925 14024 14030      1
 13926 14024 14033      1
 13927 14025 14026      1
 13928 14025 14027      2
 13929 14026 14031      1
 13930 14026 14032      1
 13931 14033 14034      1
 13932 14033 14038      1
 13933 14033 14039      1
 13934 14034 14035      1
 13935 14034 14040      1
 13936 14034 14043      1
 13937 14035 14036      1
 13938 14035 14037      2
 13939 14036 14041      1
 13940 14036 14042      1
 13941 14043 14044      1
 13942 14043 14048      1
 13943 14043 14049      1
 13944 14044 14045      1
 13945 14044 14050      1
 13946 14044 14053      1
 13947 14045 14046      1
 13948 14045 14047      2
 13949 14046 14051      1
 13950 14046 14052      1
 13951 14053 14054      1
 13952 14053 14058      1
 13953 14053 14059      1
 13954 14054 14055      1
 13955 14054 14060      1
 13956 14054 14063      1
 13957 14055 14056      1
 13958 14055 14057      2
 13959 14056 14061      1
 13960 14056 14062      1
 13961 14063 14064      1
 13962 14063 14068      1
 13963 14063 14069      1
 13964 14064 14065      1
 13965 14064 14070      1
 13966 14064 14073      1
 13967 14065 14066      1
 13968 14065 14067      2
 13969 14066 14071      1
 13970 14066 14072      1
 13971 14073 14074      1
 13972 14073 14078      1
 13973 14073 14079      1
 13974 14074 14075      1
 13975 14074 14080      1
 13976 14074 14083      1
 13977 14075 14076      1
 13978 14075 14077      2
 13979 14076 14081      1
 13980 14076 14082      1
 13981 14083 14084      1
 13982 14083 14088      1
 13983 14083 14089      1
 13984 14084 14085      1
 13985 14084 14090      1
 13986 14084 14093      1
 13987 14085 14086      1
 13988 14085 14087      2
 13989 14086 14091      1
 13990 14086 14092      1
 13991 14093 14094      1
 13992 14093 14098      1
 13993 14093 14099      1
 13994 14094 14095      1
 13995 14094 14100      1
 13996 14094 14103      1
 13997 14095 14096      1
 13998 14095 14097      2
 13999 14096 14101      1
 14000 14096 14102      1
 14001 14103 14104      1
 14002 14103 14108      1
 14003 14103 14109      1
 14004 14104 14105      1
 14005 14104 14110      1
 14006 14104 14113      1
 14007 14105 14106      1
 14008 14105 14107      2
 14009 14106 14111      1
 14010 14106 14112      1
 14011 14113 14114      1
 14012 14113 14118      1
 14013 14113 14119      1
 14014 14114 14115      1
 14015 14114 14120      1
 14016 14114 14123      1
 14017 14115 14116      1
 14018 14115 14117      2
 14019 14116 14121      1
 14020 14116 14122      1
 14021 14123 14124      1
 14022 14123 14128      1
 14023 14123 14129      1
 14024 14124 14125      1
 14025 14124 14130      1
 14026 14124 14133      1
 14027 14125 14126      1
 14028 14125 14127      2
 14029 14126 14131      1
 14030 14126 14132      1
 14031 14133 14134      1
 14032 14133 14138      1
 14033 14133 14139      1
 14034 14134 14135      1
 14035 14134 14140      1
 14036 14134 14143      1
 14037 14135 14136      1
 14038 14135 14137      2
 14039 14136 14141      1
 14040 14136 14142      1
 14041 14143 14144      1
 14042 14143 14148      1
 14043 14143 14149      1
 14044 14144 14145      1
 14045 14144 14150      1
 14046 14144 14153      1
 14047 14145 14146      1
 14048 14145 14147      2
 14049 14146 14151      1
 14050 14146 14152      1
 14051 14153 14154      1
 14052 14153 14158      1
 14053 14153 14159      1
 14054 14154 14155      1
 14055 14154 14160      1
 14056 14154 14163      1
 14057 14155 14156      1
 14058 14155 14157      2
 14059 14156 14161      1
 14060 14156 14162      1
 14061 14163 14164      1
 14062 14163 14168      1
 14063 14163 14169      1
 14064 14164 14165      1
 14065 14164 14170      1
 14066 14164 14173      1
 14067 14165 14166      1
 14068 14165 14167      2
 14069 14166 14171      1
 14070 14166 14172      1
 14071 14173 14174      1
 14072 14173 14178      1
 14073 14173 14179      1
 14074 14174 14175      1
 14075 14174 14180      1
 14076 14174 14183      1
 14077 14175 14176      1
 14078 14175 14177      2
 14079 14176 14181      1
 14080 14176 14182      1
 14081 14183 14184      1
 14082 14183 14188      1
 14083 14183 14189      1
 14084 14184 14185      1
 14085 14184 14190      1
 14086 14184 14193      1
 14087 14185 14186      1
 14088 14185 14187      2
 14089 14186 14191      1
 14090 14186 14192      1
 14091 14193 14194      1
 14092 14193 14198      1
 14093 14193 14199      1
 14094 14194 14195      1
 14095 14194 14200      1
 14096 14194 14203      1
 14097 14195 14196      1
 14098 14195 14197      2
 14099 14196 14201      1
 14100 14196 14202      1
 14101 14203 14204      1
 14102 14203 14208      1
 14103 14203 14209      1
 14104 14204 14205      1
 14105 14204 14210      1
 14106 14204 14213      1
 14107 14205 14206      1
 14108 14205 14207      2
 14109 14206 14211      1
 14110 14206 14212      1
 14111 14213 14214      1
 14112 14213 14218      1
 14113 14213 14219      1
 14114 14214 14215      1
 14115 14214 14220      1
 14116 14214 14223      1
 14117 14215 14216      1
 14118 14215 14217      2
 14119 14216 14221      1
 14120 14216 14222      1
 14121 14223 14224      1
 14122 14223 14228      1
 14123 14223 14229      1
 14124 14224 14225      1
 14125 14224 14230      1
 14126 14224 14233      1
 14127 14225 14226      1
 14128 14225 14227      2
 14129 14226 14231      1
 14130 14226 14232      1
 14131 14233 14234      1
 14132 14233 14238      1
 14133 14233 14239      1
 14134 14234 14235      1
 14135 14234 14240      1
 14136 14234 14243      1
 14137 14235 14236      1
 14138 14235 14237      2
 14139 14236 14241      1
 14140 14236 14242      1
 14141 14243 14244      1
 14142 14243 14248      1
 14143 14243 14249      1
 14144 14244 14245      1
 14145 14244 14250      1
 14146 14244 14253      1
 14147 14245 14246      1
 14148 14245 14247      2
 14149 14246 14251      1
 14150 14246 14252      1
 14151 14253 14254      1
 14152 14253 14258      1
 14153 14253 14259      1
 14154 14254 14255      1
 14155 14254 14260      1
 14156 14254 14263      1
 14157 14255 14256      1
 14158 14255 14257      2
 14159 14256 14261      1
 14160 14256 14262      1
 14161 14263 14264      1
 14162 14263 14268      1
 14163 14263 14269      1
 14164 14264 14265      1
 14165 14264 14270      1
 14166 14264 14273      1
 14167 14265 14266      1
 14168 14265 14267      2
 14169 14266 14271      1
 14170 14266 14272      1
 14171 14273 14274      1
 14172 14273 14278      1
 14173 14273 14279      1
 14174 14274 14275      1
 14175 14274 14280      1
 14176 14274 14283      1
 14177 14275 14276      1
 14178 14275 14277      2
 14179 14276 14281      1
 14180 14276 14282      1
 14181 14283 14284      1
 14182 14283 14288      1
 14183 14283 14289      1
 14184 14284 14285      1
 14185 14284 14290      1
 14186 14284 14293      1
 14187 14285 14286      1
 14188 14285 14287      2
 14189 14286 14291      1
 14190 14286 14292      1
 14191 14293 14294      1
 14192 14293 14298      1
 14193 14293 14299      1
 14194 14294 14295      1
 14195 14294 14300      1
 14196 14294 14303      1
 14197 14295 14296      1
 14198 14295 14297      2
 14199 14296 14301      1
 14200 14296 14302      1
 14201 14303 14304      1
 14202 14303 14308      1
 14203 14303 14309      1
 14204 14304 14305      1
 14205 14304 14310      1
 14206 14304 14313      1
 14207 14305 14306      1
 14208 14305 14307      2
 14209 14306 14311      1
 14210 14306 14312      1
 14211 14313 14314      1
 14212 14313 14318      1
 14213 14313 14319      1
 14214 14314 14315      1
 14215 14314 14320      1
 14216 14314 14323      1
 14217 14315 14316      1
 14218 14315 14317      2
 14219 14316 14321      1
 14220 14316 14322      1
 14221 14323 14324      1
 14222 14323 14328      1
 14223 14323 14329      1
 14224 14324 14325      1
 14225 14324 14330      1
 14226 14324 14333      1
 14227 14325 14326      1
 14228 14325 14327      2
 14229 14326 14331      1
 14230 14326 14332      1
 14231 14333 14334      1
 14232 14333 14338      1
 14233 14333 14339      1
 14234 14334 14335      1
 14235 14334 14340      1
 14236 14334 14343      1
 14237 14335 14336      1
 14238 14335 14337      2
 14239 14336 14341      1
 14240 14336 14342      1
 14241 14343 14344      1
 14242 14343 14348      1
 14243 14343 14349      1
 14244 14344 14345      1
 14245 14344 14350      1
 14246 14344 14353      1
 14247 14345 14346      1
 14248 14345 14347      2
 14249 14346 14351      1
 14250 14346 14352      1
 14251 14353 14354      1
 14252 14353 14358      1
 14253 14353 14359      1
 14254 14354 14355      1
 14255 14354 14360      1
 14256 14354 14363      1
 14257 14355 14356      1
 14258 14355 14357      2
 14259 14356 14361      1
 14260 14356 14362      1
 14261 14363 14364      1
 14262 14363 14368      1
 14263 14363 14369      1
 14264 14364 14365      1
 14265 14364 14370      1
 14266 14365 14366      1
 14267 14365 14367      2
 14268 14366 14371      1
 14269 14366 14372      1
 14270 14373 14374      1
 14271 14373 14378      1
 14272 14373 14379      1
 14273 14374 14375      1
 14274 14374 14380      1
 14275 14374 14383      1
 14276 14375 14376      1
 14277 14375 14377      2
 14278 14376 14381      1
 14279 14376 14382      1
 14280 14383 14384      1
 14281 14383 14388      1
 14282 14383 14389      1
 14283 14384 14385      1
 14284 14384 14390      1
 14285 14384 14393      1
 14286 14385 14386      1
 14287 14385 14387      2
 14288 14386 14391      1
 14289 14386 14392      1
 14290 14393 14394      1
 14291 14393 14398      1
 14292 14393 14399      1
 14293 14394 14395      1
 14294 14394 14400      1
 14295 14394 14403      1
 14296 14395 14396      1
 14297 14395 14397      2
 14298 14396 14401      1
 14299 14396 14402      1
 14300 14403 14404      1
 14301 14403 14408      1
 14302 14403 14409      1
 14303 14404 14405      1
 14304 14404 14410      1
 14305 14404 14413      1
 14306 14405 14406      1
 14307 14405 14407      2
 14308 14406 14411      1
 14309 14406 14412      1
 14310 14413 14414      1
 14311 14413 14418      1
 14312 14413 14419      1
 14313 14414 14415      1
 14314 14414 14420      1
 14315 14414 14423      1
 14316 14415 14416      1
 14317 14415 14417      2
 14318 14416 14421      1
 14319 14416 14422      1
 14320 14423 14424      1
 14321 14423 14428      1
 14322 14423 14429      1
 14323 14424 14425      1
 14324 14424 14430      1
 14325 14424 14433      1
 14326 14425 14426      1
 14327 14425 14427      2
 14328 14426 14431      1
 14329 14426 14432      1
 14330 14433 14434      1
 14331 14433 14438      1
 14332 14433 14439      1
 14333 14434 14435      1
 14334 14434 14440      1
 14335 14434 14443      1
 14336 14435 14436      1
 14337 14435 14437      2
 14338 14436 14441      1
 14339 14436 14442      1
 14340 14443 14444      1
 14341 14443 14448      1
 14342 14443 14449      1
 14343 14444 14445      1
 14344 14444 14450      1
 14345 14444 14453      1
 14346 14445 14446      1
 14347 14445 14447      2
 14348 14446 14451      1
 14349 14446 14452      1
 14350 14453 14454      1
 14351 14453 14458      1
 14352 14453 14459      1
 14353 14454 14455      1
 14354 14454 14460      1
 14355 14454 14463      1
 14356 14455 14456      1
 14357 14455 14457      2
 14358 14456 14461      1
 14359 14456 14462      1
 14360 14463 14464      1
 14361 14463 14468      1
 14362 14463 14469      1
 14363 14464 14465      1
 14364 14464 14470      1
 14365 14464 14473      1
 14366 14465 14466      1
 14367 14465 14467      2
 14368 14466 14471      1
 14369 14466 14472      1
 14370 14473 14474      1
 14371 14473 14478      1
 14372 14473 14479      1
 14373 14474 14475      1
 14374 14474 14480      1
 14375 14474 14483      1
 14376 14475 14476      1
 14377 14475 14477      2
 14378 14476 14481      1
 14379 14476 14482      1
 14380 14483 14484      1
 14381 14483 14488      1
 14382 14483 14489      1
 14383 14484 14485      1
 14384 14484 14490      1
 14385 14484 14493      1
 14386 14485 14486      1
 14387 14485 14487      2
 14388 14486 14491      1
 14389 14486 14492      1
 14390 14493 14494      1
 14391 14493 14498      1
 14392 14493 14499      1
 14393 14494 14495      1
 14394 14494 14500      1
 14395 14494 14503      1
 14396 14495 14496      1
 14397 14495 14497      2
 14398 14496 14501      1
 14399 14496 14502      1
 14400 14503 14504      1
 14401 14503 14508      1
 14402 14503 14509      1
 14403 14504 14505      1
 14404 14504 14510      1
 14405 14504 14513      1
 14406 14505 14506      1
 14407 14505 14507      2
 14408 14506 14511      1
 14409 14506 14512      1
 14410 14513 14514      1
 14411 14513 14518      1
 14412 14513 14519      1
 14413 14514 14515      1
 14414 14514 14520      1
 14415 14514 14523      1
 14416 14515 14516      1
 14417 14515 14517      2
 14418 14516 14521      1
 14419 14516 14522      1
 14420 14523 14524      1
 14421 14523 14528      1
 14422 14523 14529      1
 14423 14524 14525      1
 14424 14524 14530      1
 14425 14524 14533      1
 14426 14525 14526      1
 14427 14525 14527      2
 14428 14526 14531      1
 14429 14526 14532      1
 14430 14533 14534      1
 14431 14533 14538      1
 14432 14533 14539      1
 14433 14534 14535      1
 14434 14534 14540      1
 14435 14534 14543      1
 14436 14535 14536      1
 14437 14535 14537      2
 14438 14536 14541      1
 14439 14536 14542      1
 14440 14543 14544      1
 14441 14543 14548      1
 14442 14543 14549      1
 14443 14544 14545      1
 14444 14544 14550      1
 14445 14544 14553      1
 14446 14545 14546      1
 14447 14545 14547      2
 14448 14546 14551      1
 14449 14546 14552      1
 14450 14553 14554      1
 14451 14553 14558      1
 14452 14553 14559      1
 14453 14554 14555      1
 14454 14554 14560      1
 14455 14554 14563      1
 14456 14555 14556      1
 14457 14555 14557      2
 14458 14556 14561      1
 14459 14556 14562      1
 14460 14563 14564      1
 14461 14563 14568      1
 14462 14563 14569      1
 14463 14564 14565      1
 14464 14564 14570      1
 14465 14564 14573      1
 14466 14565 14566      1
 14467 14565 14567      2
 14468 14566 14571      1
 14469 14566 14572      1
 14470 14573 14574      1
 14471 14573 14578      1
 14472 14573 14579      1
 14473 14574 14575      1
 14474 14574 14580      1
 14475 14574 14583      1
 14476 14575 14576      1
 14477 14575 14577      2
 14478 14576 14581      1
 14479 14576 14582      1
 14480 14583 14584      1
 14481 14583 14588      1
 14482 14583 14589      1
 14483 14584 14585      1
 14484 14584 14590      1
 14485 14584 14593      1
 14486 14585 14586      1
 14487 14585 14587      2
 14488 14586 14591      1
 14489 14586 14592      1
 14490 14593 14594      1
 14491 14593 14598      1
 14492 14593 14599      1
 14493 14594 14595      1
 14494 14594 14600      1
 14495 14594 14603      1
 14496 14595 14596      1
 14497 14595 14597      2
 14498 14596 14601      1
 14499 14596 14602      1
 14500 14603 14604      1
 14501 14603 14608      1
 14502 14603 14609      1
 14503 14604 14605      1
 14504 14604 14610      1
 14505 14604 14613      1
 14506 14605 14606      1
 14507 14605 14607      2
 14508 14606 14611      1
 14509 14606 14612      1
 14510 14613 14614      1
 14511 14613 14618      1
 14512 14613 14619      1
 14513 14614 14615      1
 14514 14614 14620      1
 14515 14614 14623      1
 14516 14615 14616      1
 14517 14615 14617      2
 14518 14616 14621      1
 14519 14616 14622      1
 14520 14623 14624      1
 14521 14623 14628      1
 14522 14623 14629      1
 14523 14624 14625      1
 14524 14624 14630      1
 14525 14624 14633      1
 14526 14625 14626      1
 14527 14625 14627      2
 14528 14626 14631      1
 14529 14626 14632      1
 14530 14633 14634      1
 14531 14633 14638      1
 14532 14633 14639      1
 14533 14634 14635      1
 14534 14634 14640      1
 14535 14634 14643      1
 14536 14635 14636      1
 14537 14635 14637      2
 14538 14636 14641      1
 14539 14636 14642      1
 14540 14643 14644      1
 14541 14643 14648      1
 14542 14643 14649      1
 14543 14644 14645      1
 14544 14644 14650      1
 14545 14644 14653      1
 14546 14645 14646      1
 14547 14645 14647      2
 14548 14646 14651      1
 14549 14646 14652      1
 14550 14653 14654      1
 14551 14653 14658      1
 14552 14653 14659      1
 14553 14654 14655      1
 14554 14654 14660      1
 14555 14654 14663      1
 14556 14655 14656      1
 14557 14655 14657      2
 14558 14656 14661      1
 14559 14656 14662      1
 14560 14663 14664      1
 14561 14663 14668      1
 14562 14663 14669      1
 14563 14664 14665      1
 14564 14664 14670      1
 14565 14664 14673      1
 14566 14665 14666      1
 14567 14665 14667      2
 14568 14666 14671      1
 14569 14666 14672      1
 14570 14673 14674      1
 14571 14673 14678      1
 14572 14673 14679      1
 14573 14674 14675      1
 14574 14674 14680      1
 14575 14674 14683      1
 14576 14675 14676      1
 14577 14675 14677      2
 14578 14676 14681      1
 14579 14676 14682      1
 14580 14683 14684      1
 14581 14683 14688      1
 14582 14683 14689      1
 14583 14684 14685      1
 14584 14684 14690      1
 14585 14684 14693      1
 14586 14685 14686      1
 14587 14685 14687      2
 14588 14686 14691      1
 14589 14686 14692      1
 14590 14693 14694      1
 14591 14693 14698      1
 14592 14693 14699      1
 14593 14694 14695      1
 14594 14694 14700      1
 14595 14694 14703      1
 14596 14695 14696      1
 14597 14695 14697      2
 14598 14696 14701      1
 14599 14696 14702      1
 14600 14703 14704      1
 14601 14703 14708      1
 14602 14703 14709      1
 14603 14704 14705      1
 14604 14704 14710      1
 14605 14705 14706      1
 14606 14705 14707      2
 14607 14706 14711      1
 14608 14706 14712      1
 14609   221   903      1
 14610   305  1064      1
 14611   324  1073      1
 14612   219  1214      1
 14613   536  1223      1
 14614   323  1344      1
 14615     1  1353      1
 14616   326  1414      1
 14617   580  1423      1
 14618     8  1504      1
 14619    32  1513      1
 14620     9  1564      1
 14621   598  1573      1
 14622   578  1654      1
 14623   888  1663      1
 14624   302  1724      1
 14625   443  1733      1
 14626   538  1804      1
 14627   870  1813      1
 14628    30  1914      1
 14629   726  1923      1
 14630   316  2104      1
 14631   708  2113      1
 14632   601  2264      1
 14633   156  2273      1
 14634   591  2374      1
 14635   494  2383      1
 14636   148  2444      1
 14637    72  2453      1
 14638   528  2604      1
 14639   744  2613      1
 14640   155  2734      1
 14641   369  2743      1
 14642   599  2944      1
 14643   735  2953      1
 14644   366  3054      1
 14645   861  3063      1
 14646   493  3264      1
 14647   852  3273      1
 14648   577  3354      1
 14649   825  3363      1
 14650   451  3484      1
 14651   663  3493      1
 14652   359  3734      1
 14653   771  3743      1
 14654    29  3904      1
 14655   515  3913      1
 14656    64  3994      1
 14657   429  4003      1
 14658   517  4064      1
 14659   619  4073      1
 14660   430  4144      1
 14661   127  4153      1
 14662   422  4274      1
 14663   401  4283      1
 14664   135  4414      1
 14665   636  4423      1
 14666   408  4524      1
 14667   762  4533      1
 14668   137  4664      1
 14669   816  4673      1
 14670   507  4814      1
 14671   807  4823      1
 14672   134  4904      1
 14673   654  4913      1
 14674   620  5064      1
 14675   380  5073      1
 14676   409  5174      1
 14677    93  5183      1
 14678   612  5344      1
 14679   116  5353      1
 14680    95  5484      1
 14681   472  5493      1
 14682   114  5584      1
 14683   681  5593      1
 14684   475  5684      1
 14685   197  5693      1
 14686    92  5864      1
 14687   780  5873      1
 14688   198  6304      1
 14689   699  6313      1
 14690   200  6404      1
 14691   753  6413      1
 14692   450  6834      1
 14693   690  6843      1
 14694   218  6994      1
 14695    53  7003      1
 14696    22  7234      1
 14697   879  7243      1
 14698    50  7504      1
 14699   717  7513      1
 14700    43  8074      1
 14701   240  8083      1
 14702    51  8194      1
 14703   897  8203      1
 14704   242  8394      1
 14705   798  8403      1
 14706   232  8504      1
 14707   559  8513      1
 14708   239  8704      1
 14709   345  8713      1
 14710   549  8844      1
 14711   843  8853      1
 14712   158  9234      1
 14713   645  9243      1
 14714   390  9394      1
 14715   176  9403      1
 14716   486  9534      1
 14717   263  9543      1
 14718   179  9604      1
 14719   834  9613      1
 14720   169  9894      1
 14721   274  9903      1
 14722   570 10044      1
 14723   672 10053      1
 14724   284 10144      1
 14725   789 10153      1
 14726   190 10404      1
 14727    11 10413      1
 14728   367 10504      1
 14729    71 10513      1
 14730   535 10804      1
 14731    74 10813      1
 14732   514 10964      1
 14733    85 10973      1
 14734   106 11184      1
 14735   113 11193      1
 14736   465 11644      1
 14737   177 11653      1
 14738   253 12084      1
 14739   211 12093      1
 14740   295 12164      1
 14741   260 12173      1
 14742   281 12364      1
 14743   261 12373      1
 14744   387 12574      1
 14745   282 12583      1
 14746   388 12804      1
 14747   303 12813      1
 14748   473 12934      1
 14749   344 12943      1
 14750   556 13464      1
 14751   337 13473      1
 14752   557 13594      1
 14753   411 13603      1
 14754   432 14364      1
 14755   496 14373      1
 14756   622 14704      1
