###
### Created by PolyChef-cpp17 on Tue Apr 15 15:28:43 2025
###

@<TRIPOS>MOLECULE
NO_INFO
254 253 1 0 0
SMALL
USER_CHARGES


@<TRIPOS>ATOM
      1 C          14.2367   48.8967    4.3038 C.3       0      M_A    0.0000
      2 C          13.1070   48.6311    5.3321 C.3       0      M_A    0.0000
      3 O          12.3913   49.8140    5.6643 O.3       0      M_A    0.0000
      4 H          15.2154   48.7711    4.7820 H         0      M_A    0.0000
      5 H          14.1611   48.1394    3.5132 H         0      M_A    0.0000
      6 H          12.3890   47.9449    4.8688 H         0      M_A    0.0000
      7 H          12.9241   50.1697    6.4006 H         0      M_A    0.0000
      8 C          13.5762   48.0156    6.6780 C.3       1      M_A    0.0000
      9 C          14.6729   46.9253    6.5666 C.3       1      M_A    0.0000
     10 O          14.3851   45.9726    5.5511 O.3       1      M_A    0.0000
     11 H          12.7047   47.6170    7.2109 H         1      M_A    0.0000
     12 H          13.9772   48.8403    7.2806 H         1      M_A    0.0000
     13 H          15.6080   47.4208    6.2816 H         1      M_A    0.0000
     14 H          13.8427   45.3218    6.0357 H         1      M_A    0.0000
     15 C          14.9243   46.1124    7.8653 C.3       2      M_A    0.0000
     16 C          16.1583   45.1741    7.8368 C.3       2      M_A    0.0000
     17 O          15.8284   43.8625    7.3979 O.3       2      M_A    0.0000
     18 H          14.0223   45.5375    8.1065 H         2      M_A    0.0000
     19 H          15.0709   46.8419    8.6719 H         2      M_A    0.0000
     20 H          16.8708   45.5822    7.1109 H         2      M_A    0.0000
     21 H          15.5691   43.4313    8.2342 H         2      M_A    0.0000
     22 C          16.8863   45.0058    9.1977 C.3       3      M_A    0.0000
     23 C          18.4137   44.7539    9.1107 C.3       3      M_A    0.0000
     24 O          18.7247   43.5718    8.3844 O.3       3      M_A    0.0000
     25 H          16.4051   44.1982    9.7622 H         3      M_A    0.0000
     26 H          16.7268   45.9352    9.7591 H         3      M_A    0.0000
     27 H          18.8589   45.5909    8.5609 H         3      M_A    0.0000
     28 H          18.6924   42.8927    9.0847 H         3      M_A    0.0000
     29 C          19.1365   44.6253   10.4787 C.3       4      M_A    0.0000
     30 C          20.6566   44.9304   10.4614 C.3       4      M_A    0.0000
     31 O          21.4232   43.8256    9.9996 O.3       4      M_A    0.0000
     32 H          18.9608   43.6209   10.8820 H         4      M_A    0.0000
     33 H          18.6547   45.3384   11.1596 H         4      M_A    0.0000
     34 H          20.8240   45.7509    9.7544 H         4      M_A    0.0000
     35 H          21.5726   43.3270   10.8253 H         4      M_A    0.0000
     36 C          21.2605   45.3341   11.8336 C.3       5      M_A    0.0000
     37 C          21.6097   46.8364   11.9929 C.3       5      M_A    0.0000
     38 O          22.8277   47.1785   11.3440 O.3       5      M_A    0.0000
     39 H          22.1486   44.7207   12.0268 H         5      M_A    0.0000
     40 H          20.5145   45.0762   12.5959 H         5      M_A    0.0000
     41 H          20.8170   47.4164   11.5068 H         5      M_A    0.0000
     42 H          23.4847   46.9923   12.0413 H         5      M_A    0.0000
     43 C          21.7472   47.3261   13.4597 C.3       6      M_A    0.0000
     44 C          20.4926   48.0181   14.0524 C.3       6      M_A    0.0000
     45 O          20.5588   49.4347   13.9491 O.3       6      M_A    0.0000
     46 H          22.6133   47.9946   13.5329 H         6      M_A    0.0000
     47 H          21.9668   46.4408   14.0698 H         6      M_A    0.0000
     48 H          19.6255   47.6969   13.4643 H         6      M_A    0.0000
     49 H          21.0297   49.6731   14.7701 H         6      M_A    0.0000
     50 C          20.2151   47.7047   15.5474 C.3       7      M_A    0.0000
     51 C          19.0728   46.6912   15.8157 C.3       7      M_A    0.0000
     52 O          18.3002   47.0392   16.9575 O.3       7      M_A    0.0000
     53 H          20.0149   48.6434   16.0775 H         7      M_A    0.0000
     54 H          21.1424   47.2885   15.9611 H         7      M_A    0.0000
     55 H          18.3956   46.7162   14.9543 H         7      M_A    0.0000
     56 H          18.7995   46.6067   17.6760 H         7      M_A    0.0000
     57 C          19.5343   45.2251   16.0348 C.3       8      M_A    0.0000
     58 C          19.1239   44.5916   17.3891 C.3       8      M_A    0.0000
     59 O          17.8201   44.9867   17.7961 O.3       8      M_A    0.0000
     60 H          20.6225   45.1714   15.9108 H         8      M_A    0.0000
     61 H          19.0853   44.6283   15.2307 H         8      M_A    0.0000
     62 H          19.0988   43.5042   17.2546 H         8      M_A    0.0000
     63 H          18.0044   45.8123   18.2830 H         8      M_A    0.0000
     64 C          20.0670   44.9173   18.5785 C.3       9      M_A    0.0000
     65 C          21.0057   43.7652   19.0207 C.3       9      M_A    0.0000
     66 O          20.3822   42.8882   19.9500 O.3       9      M_A    0.0000
     67 H          19.4640   45.2565   19.4293 H         9      M_A    0.0000
     68 H          20.6919   45.7630   18.2647 H         9      M_A    0.0000
     69 H          21.2438   43.1695   18.1321 H         9      M_A    0.0000
     70 H          20.5811   43.3239   20.8004 H         9      M_A    0.0000
     71 C          22.3368   44.2191   19.6784 C.3      10      M_A    0.0000
     72 C          23.5906   44.1413   18.7696 C.3      10      M_A    0.0000
     73 O          24.1084   42.8203   18.6771 O.3      10      M_A    0.0000
     74 H          22.5001   43.6358   20.5925 H        10      M_A    0.0000
     75 H          22.2003   45.2653   19.9799 H        10      M_A    0.0000
     76 H          23.2880   44.4355   17.7581 H        10      M_A    0.0000
     77 H          24.7109   42.7877   19.4442 H        10      M_A    0.0000
     78 C          24.7763   45.0422   19.2088 C.3      11      M_A    0.0000
     79 C          24.9225   46.3773   18.4340 C.3      11      M_A    0.0000
     80 O          24.9998   46.1792   17.0282 O.3      11      M_A    0.0000
     81 H          25.7066   44.4659   19.1405 H        11      M_A    0.0000
     82 H          24.6177   45.2801   20.2683 H        11      M_A    0.0000
     83 H          24.0215   46.9723   18.6219 H        11      M_A    0.0000
     84 H          25.9577   46.0442   16.8978 H        11      M_A    0.0000
     85 C          26.1621   47.2282   18.8210 C.3      12      M_A    0.0000
     86 C          25.9167   48.3103   19.9040 C.3      12      M_A    0.0000
     87 O          27.0770   49.0920   20.1578 O.3      12      M_A    0.0000
     88 H          26.5739   47.6907   17.9161 H        12      M_A    0.0000
     89 H          26.9181   46.5307   19.2031 H        12      M_A    0.0000
     90 H          25.1496   48.9946   19.5239 H        12      M_A    0.0000
     91 H          27.5276   48.5638   20.8438 H        12      M_A    0.0000
     92 C          25.4503   47.7664   21.2813 C.3      13      M_A    0.0000
     93 C          24.4939   48.6930   22.0755 C.3      13      M_A    0.0000
     94 O          23.3330   49.0361   21.3297 O.3      13      M_A    0.0000
     95 H          26.3321   47.5296   21.8885 H        13      M_A    0.0000
     96 H          24.9254   46.8224   21.0876 H        13      M_A    0.0000
     97 H          24.1525   48.1414   22.9589 H        13      M_A    0.0000
     98 H          23.6338   49.8279   20.8448 H        13      M_A    0.0000
     99 C          25.1195   50.0339   22.5456 C.3      14      M_A    0.0000
    100 C          24.4684   50.6702   23.8007 C.3      14      M_A    0.0000
    101 O          24.2196   49.7135   24.8228 O.3      14      M_A    0.0000
    102 H          25.1025   50.7469   21.7127 H        14      M_A    0.0000
    103 H          26.1724   49.8282   22.7766 H        14      M_A    0.0000
    104 H          25.1778   51.3973   24.2120 H        14      M_A    0.0000
    105 H          23.3336   49.3854   24.5779 H        14      M_A    0.0000
    106 C          23.1182   51.3925   23.5447 C.3      15      M_A    0.0000
    107 C          22.6213   52.3055   24.6951 C.3      15      M_A    0.0000
    108 O          22.6327   51.6427   25.9529 O.3      15      M_A    0.0000
    109 H          22.3536   50.6444   23.3035 H        15      M_A    0.0000
    110 H          23.2568   52.0157   22.6522 H        15      M_A    0.0000
    111 H          23.3158   53.1497   24.7745 H        15      M_A    0.0000
    112 H          21.7539   51.2182   25.9630 H        15      M_A    0.0000
    113 C          21.1852   52.8669   24.5136 C.3      16      M_A    0.0000
    114 C          21.0689   54.4131   24.5084 C.3      16      M_A    0.0000
    115 O          20.7265   54.9324   25.7869 O.3      16      M_A    0.0000
    116 H          20.5365   52.4453   25.2907 H        16      M_A    0.0000
    117 H          20.8199   52.4956   23.5478 H        16      M_A    0.0000
    118 H          22.0538   54.8207   24.2533 H        16      M_A    0.0000
    119 H          19.7514   54.8983   25.7618 H        16      M_A    0.0000
    120 C          20.0264   54.9893   23.5127 C.3      17      M_A    0.0000
    121 C          19.3868   56.3405   23.9240 C.3      17      M_A    0.0000
    122 O          18.8219   56.2949   25.2280 O.3      17      M_A    0.0000
    123 H          19.2434   54.2407   23.3430 H        17      M_A    0.0000
    124 H          20.5479   55.1370   22.5585 H        17      M_A    0.0000
    125 H          20.1835   57.0927   23.9491 H        17      M_A    0.0000
    126 H          17.9204   55.9692   25.0439 H        17      M_A    0.0000
    127 C          18.2622   56.8480   22.9816 C.3      18      M_A    0.0000
    128 C          18.4011   58.3179   22.5081 C.3      18      M_A    0.0000
    129 O          19.3144   59.0580   23.3080 O.3      18      M_A    0.0000
    130 H          17.2926   56.7029   23.4728 H        18      M_A    0.0000
    131 H          18.2774   56.2026   22.0943 H        18      M_A    0.0000
    132 H          18.8091   58.3035   21.4910 H        18      M_A    0.0000
    133 H          18.7351   59.3843   24.0226 H        18      M_A    0.0000
    134 C          17.0785   59.1309   22.4949 C.3      19      M_A    0.0000
    135 C          17.0968   60.4208   21.6348 C.3      19      M_A    0.0000
    136 O          18.2830   60.5351   20.8593 O.3      19      M_A    0.0000
    137 H          16.7983   59.3729   23.5270 H        19      M_A    0.0000
    138 H          16.3025   58.4664   22.0941 H        19      M_A    0.0000
    139 H          16.2602   60.3629   20.9291 H        19      M_A    0.0000
    140 H          18.8848   60.9877   21.4802 H        19      M_A    0.0000
    141 C          16.9727   61.7452   22.4355 C.3      20      M_A    0.0000
    142 C          16.4724   62.9696   21.6265 C.3      20      M_A    0.0000
    143 O          17.5415   63.7064   21.0470 O.3      20      M_A    0.0000
    144 H          17.9395   61.9730   22.9001 H        20      M_A    0.0000
    145 H          16.2575   61.5589   23.2467 H        20      M_A    0.0000
    146 H          15.8597   62.5946   20.7988 H        20      M_A    0.0000
    147 H          17.7707   64.3250   21.7664 H        20      M_A    0.0000
    148 C          15.6302   63.9917   22.4367 C.3      21      M_A    0.0000
    149 C          16.2245   65.4207   22.5305 C.3      21      M_A    0.0000
    150 O          17.5252   65.4270   23.1048 O.3      21      M_A    0.0000
    151 H          15.4554   63.5921   23.4427 H        21      M_A    0.0000
    152 H          14.6541   64.0618   21.9402 H        21      M_A    0.0000
    153 H          16.3260   65.8073   21.5100 H        21      M_A    0.0000
    154 H          17.3226   65.4913   24.0574 H        21      M_A    0.0000
    155 C          15.3809   66.4294   23.3558 C.3      22      M_A    0.0000
    156 C          16.1817   67.3215   24.3392 C.3      22      M_A    0.0000
    157 O          16.8524   66.5593   25.3346 O.3      22      M_A    0.0000
    158 H          14.6002   65.8822   23.8975 H        22      M_A    0.0000
    159 H          14.8777   67.0858   22.6347 H        22      M_A    0.0000
    160 H          16.9550   67.8421   23.7629 H        22      M_A    0.0000
    161 H          16.1660   66.4833   26.0243 H        22      M_A    0.0000
    162 C          15.3388   68.3811   25.0989 C.3      23      M_A    0.0000
    163 C          15.5166   68.3959   26.6391 C.3      23      M_A    0.0000
    164 O          15.7287   67.0941   27.1700 O.3      23      M_A    0.0000
    165 H          14.2809   68.2439   24.8454 H        23      M_A    0.0000
    166 H          15.6415   69.3626   24.7126 H        23      M_A    0.0000
    167 H          16.4150   68.9816   26.8654 H        23      M_A    0.0000
    168 H          14.8141   66.7873   27.3180 H        23      M_A    0.0000
    169 C          14.3253   68.9987   27.4314 C.3      24      M_A    0.0000
    170 C          14.5400   70.4380   27.9667 C.3      24      M_A    0.0000
    171 O          15.8888   70.6756   28.3487 O.3      24      M_A    0.0000
    172 H          14.0701   68.3258   28.2586 H        24      M_A    0.0000
    173 H          13.4667   69.0151   26.7482 H        24      M_A    0.0000
    174 H          14.3134   71.1343   27.1513 H        24      M_A    0.0000
    175 H          15.8900   70.3725   29.2765 H        24      M_A    0.0000
    176 C          13.6682   70.8186   29.1937 C.3      25      M_A    0.0000
    177 C          12.6019   71.9154   28.9401 C.3      25      M_A    0.0000
    178 O          12.8381   72.6281   27.7327 O.3      25      M_A    0.0000
    179 H          14.3251   71.1187   30.0188 H        25      M_A    0.0000
    180 H          13.1476   69.9050   29.5077 H        25      M_A    0.0000
    181 H          11.6314   71.4180   28.8308 H        25      M_A    0.0000
    182 H          13.4384   73.3366   28.0331 H        25      M_A    0.0000
    183 C          12.4820   72.9850   30.0589 C.3      26      M_A    0.0000
    184 C          11.0402   73.2828   30.5456 C.3      26      M_A    0.0000
    185 O          10.2485   73.9013   29.5396 O.3      26      M_A    0.0000
    186 H          12.9614   73.9111   29.7199 H        26      M_A    0.0000
    187 H          13.0595   72.6139   30.9150 H        26      M_A    0.0000
    188 H          10.5632   72.3245   30.7809 H        26      M_A    0.0000
    189 H          10.4489   74.8461   29.6804 H        26      M_A    0.0000
    190 C          10.9457   74.1982   31.7960 C.3      27      M_A    0.0000
    191 C           9.7211   75.1483   31.8362 C.3      27      M_A    0.0000
    192 O           9.6076   75.9320   30.6553 O.3      27      M_A    0.0000
    193 H          11.8723   74.7777   31.8847 H        27      M_A    0.0000
    194 H          10.8908   73.5363   32.6695 H        27      M_A    0.0000
    195 H           8.8194   74.5279   31.8936 H        27      M_A    0.0000
    196 H          10.1639   76.7038   30.8735 H        27      M_A    0.0000
    197 C           9.7051   76.1483   33.0237 C.3      28      M_A    0.0000
    198 C           9.3738   77.6173   32.6546 C.3      28      M_A    0.0000
    199 O          10.1901   78.1049   31.5974 O.3      28      M_A    0.0000
    200 H          10.6699   76.1011   33.5428 H        28      M_A    0.0000
    201 H           8.9400   75.7938   33.7259 H        28      M_A    0.0000
    202 H           8.3387   77.6456   32.2956 H        28      M_A    0.0000
    203 H          10.9657   78.4434   32.0837 H        28      M_A    0.0000
    204 C           9.5177   78.6348   33.8184 C.3      29      M_A    0.0000
    205 C          10.2897   79.9352   33.4762 C.3      29      M_A    0.0000
    206 O          11.6587   79.6880   33.1823 O.3      29      M_A    0.0000
    207 H           9.9874   78.1345   34.6736 H        29      M_A    0.0000
    208 H           8.5008   78.9136   34.1226 H        29      M_A    0.0000
    209 H           9.8420   80.3602   32.5706 H        29      M_A    0.0000
    210 H          12.0637   79.7278   34.0694 H        29      M_A    0.0000
    211 C          10.2733   81.0196   34.5871 C.3      30      M_A    0.0000
    212 C          11.6472   81.6587   34.9160 C.3      30      M_A    0.0000
    213 O          12.4493   80.8199   35.7374 O.3      30      M_A    0.0000
    214 H           9.8318   80.5930   35.4956 H        30      M_A    0.0000
    215 H           9.6021   81.8163   34.2421 H        30      M_A    0.0000
    216 H          12.1883   81.7902   33.9720 H        30      M_A    0.0000
    217 H          12.1586   81.0796   36.6322 H        30      M_A    0.0000
    218 C          11.5765   83.0321   35.6365 C.3      31      M_A    0.0000
    219 C          12.5078   83.1892   36.8662 C.3      31      M_A    0.0000
    220 O          12.4074   82.0900   37.7625 O.3      31      M_A    0.0000
    221 H          10.5375   83.2299   35.9260 H        31      M_A    0.0000
    222 H          11.8589   83.7923   34.8973 H        31      M_A    0.0000
    223 H          13.5411   83.2085   36.5015 H        31      M_A    0.0000
    224 H          11.6682   82.3671   38.3364 H        31      M_A    0.0000
    225 C          12.2632   84.4655   37.7157 C.3      32      M_A    0.0000
    226 C          12.5572   84.3245   39.2315 C.3      32      M_A    0.0000
    227 O          12.5168   82.9710   39.6650 O.3      32      M_A    0.0000
    228 H          11.2308   84.8024   37.5642 H        32      M_A    0.0000
    229 H          12.9224   85.2449   37.3130 H        32      M_A    0.0000
    230 H          13.5772   84.6844   39.4083 H        32      M_A    0.0000
    231 H          11.5711   82.8575   39.8780 H        32      M_A    0.0000
    232 C          11.5924   85.1072   40.1626 C.3      33      M_A    0.0000
    233 C          12.1071   86.4865   40.6492 C.3      33      M_A    0.0000
    234 O          13.4802   86.4506   41.0166 O.3      33      M_A    0.0000
    235 H          11.3383   84.4774   41.0235 H        33      M_A    0.0000
    236 H          10.6677   85.2708   39.5948 H        33      M_A    0.0000
    237 H          12.0205   87.1888   39.8123 H        33      M_A    0.0000
    238 H          13.4292   86.1830   41.9539 H        33      M_A    0.0000
    239 C          11.3474   87.0780   41.8671 C.3      34      M_A    0.0000
    240 C          10.9390   88.5683   41.7391 C.3      34      M_A    0.0000
    241 O           9.7405   88.7367   40.9929 O.3      34      M_A    0.0000
    242 H          11.9521   86.9317   42.7700 H        34      M_A    0.0000
    243 H          10.4325   86.4843   41.9883 H        34      M_A    0.0000
    244 H          10.7411   88.9476   42.7481 H        34      M_A    0.0000
    245 H          10.0800   88.7921   40.0795 H        34      M_A    0.0000
    246 C          11.9991   89.4840   41.0697 C.3      35      M_A    0.0000
    247 C          11.6510   90.9946   41.0373 C.3      35      M_A    0.0000
    248 O          11.3515   91.5067   42.3295 O.3      35      M_A    0.0000
    249 H          12.1919   89.1222   40.0527 H        35      M_A    0.0000
    250 H          12.9285   89.3618   41.6403 H        35      M_A    0.0000
    251 H          12.5359   91.5331   40.6794 H        35      M_A    0.0000
    252 H          10.3945   91.3279   42.3983 H        35      M_A    0.0000
    253 H          10.8061   91.2591   40.4015 H        35      M_A    0.0000
    254 H          14.2044   49.8689    3.8121 H         0      M_A    0.0000
@<TRIPOS>BOND
     1     1     2      1
     2     1     4      1
     3     1     5      1
     4     1   254      1
     5     2     3      1
     6     2     6      1
     7     2     8      1
     8     3     7      1
     9     8     9      1
    10     8    11      1
    11     8    12      1
    12     9    10      1
    13     9    13      1
    14     9    15      1
    15    10    14      1
    16    15    16      1
    17    15    18      1
    18    15    19      1
    19    16    17      1
    20    16    20      1
    21    16    22      1
    22    17    21      1
    23    22    23      1
    24    22    25      1
    25    22    26      1
    26    23    24      1
    27    23    27      1
    28    23    29      1
    29    24    28      1
    30    29    30      1
    31    29    32      1
    32    29    33      1
    33    30    31      1
    34    30    34      1
    35    30    36      1
    36    31    35      1
    37    36    37      1
    38    36    39      1
    39    36    40      1
    40    37    38      1
    41    37    41      1
    42    37    43      1
    43    38    42      1
    44    43    44      1
    45    43    46      1
    46    43    47      1
    47    44    45      1
    48    44    48      1
    49    44    50      1
    50    45    49      1
    51    50    51      1
    52    50    53      1
    53    50    54      1
    54    51    52      1
    55    51    55      1
    56    51    57      1
    57    52    56      1
    58    57    58      1
    59    57    60      1
    60    57    61      1
    61    58    59      1
    62    58    62      1
    63    58    64      1
    64    59    63      1
    65    64    65      1
    66    64    67      1
    67    64    68      1
    68    65    66      1
    69    65    69      1
    70    65    71      1
    71    66    70      1
    72    71    72      1
    73    71    74      1
    74    71    75      1
    75    72    73      1
    76    72    76      1
    77    72    78      1
    78    73    77      1
    79    78    79      1
    80    78    81      1
    81    78    82      1
    82    79    80      1
    83    79    83      1
    84    79    85      1
    85    80    84      1
    86    85    86      1
    87    85    88      1
    88    85    89      1
    89    86    87      1
    90    86    90      1
    91    86    92      1
    92    87    91      1
    93    92    93      1
    94    92    95      1
    95    92    96      1
    96    93    94      1
    97    93    97      1
    98    93    99      1
    99    94    98      1
   100    99   100      1
   101    99   102      1
   102    99   103      1
   103   100   101      1
   104   100   104      1
   105   100   106      1
   106   101   105      1
   107   106   107      1
   108   106   109      1
   109   106   110      1
   110   107   108      1
   111   107   111      1
   112   107   113      1
   113   108   112      1
   114   113   114      1
   115   113   116      1
   116   113   117      1
   117   114   115      1
   118   114   118      1
   119   114   120      1
   120   115   119      1
   121   120   121      1
   122   120   123      1
   123   120   124      1
   124   121   122      1
   125   121   125      1
   126   121   127      1
   127   122   126      1
   128   127   128      1
   129   127   130      1
   130   127   131      1
   131   128   129      1
   132   128   132      1
   133   128   134      1
   134   129   133      1
   135   134   135      1
   136   134   137      1
   137   134   138      1
   138   135   136      1
   139   135   139      1
   140   135   141      1
   141   136   140      1
   142   141   142      1
   143   141   144      1
   144   141   145      1
   145   142   143      1
   146   142   146      1
   147   142   148      1
   148   143   147      1
   149   148   149      1
   150   148   151      1
   151   148   152      1
   152   149   150      1
   153   149   153      1
   154   149   155      1
   155   150   154      1
   156   155   156      1
   157   155   158      1
   158   155   159      1
   159   156   157      1
   160   156   160      1
   161   156   162      1
   162   157   161      1
   163   162   163      1
   164   162   165      1
   165   162   166      1
   166   163   164      1
   167   163   167      1
   168   163   169      1
   169   164   168      1
   170   169   170      1
   171   169   172      1
   172   169   173      1
   173   170   171      1
   174   170   174      1
   175   170   176      1
   176   171   175      1
   177   176   177      1
   178   176   179      1
   179   176   180      1
   180   177   178      1
   181   177   181      1
   182   177   183      1
   183   178   182      1
   184   183   184      1
   185   183   186      1
   186   183   187      1
   187   184   185      1
   188   184   188      1
   189   184   190      1
   190   185   189      1
   191   190   191      1
   192   190   193      1
   193   190   194      1
   194   191   192      1
   195   191   195      1
   196   191   197      1
   197   192   196      1
   198   197   198      1
   199   197   200      1
   200   197   201      1
   201   198   199      1
   202   198   202      1
   203   198   204      1
   204   199   203      1
   205   204   205      1
   206   204   207      1
   207   204   208      1
   208   205   206      1
   209   205   209      1
   210   205   211      1
   211   206   210      1
   212   211   212      1
   213   211   214      1
   214   211   215      1
   215   212   213      1
   216   212   216      1
   217   212   218      1
   218   213   217      1
   219   218   219      1
   220   218   221      1
   221   218   222      1
   222   219   220      1
   223   219   223      1
   224   219   225      1
   225   220   224      1
   226   225   226      1
   227   225   228      1
   228   225   229      1
   229   226   227      1
   230   226   230      1
   231   226   232      1
   232   227   231      1
   233   232   233      1
   234   232   235      1
   235   232   236      1
   236   233   234      1
   237   233   237      1
   238   233   239      1
   239   234   238      1
   240   239   240      1
   241   239   242      1
   242   239   243      1
   243   240   241      1
   244   240   244      1
   245   240   246      1
   246   241   245      1
   247   246   247      1
   248   246   249      1
   249   246   250      1
   250   247   248      1
   251   247   251      1
   252   247   253      1
   253   248   252      1
