###
### Created by PolyChef-cpp17 on Tue Apr 15 15:28:42 2025
###

@<TRIPOS>MOLECULE
NO_INFO
289 288 1 0 0
SMALL
USER_CHARGES


@<TRIPOS>ATOM
      1 C          89.4871   87.2795    7.2933 C.3       0      M_A    0.0000
      2 C          88.1701   87.6733    8.0106 C.3       0      M_A    0.0000
      3 O          88.4063   88.3610    9.2324 O.3       0      M_A    0.0000
      4 H          89.2250   86.7403    6.3741 H         0      M_A    0.0000
      5 H          90.0639   86.5903    7.9214 H         0      M_A    0.0000
      6 H          87.6280   88.3654    7.3561 H         0      M_A    0.0000
      7 H          88.4842   87.6224    9.8656 H         0      M_A    0.0000
      8 C          87.2305   86.4864    8.3555 C.3       1      M_A    0.0000
      9 C          87.1973   86.0742    9.8498 C.3       1      M_A    0.0000
     10 O          88.3765   85.3854   10.2455 O.3       1      M_A    0.0000
     11 H          86.2170   86.7901    8.0643 H         1      M_A    0.0000
     12 H          87.5026   85.6242    7.7352 H         1      M_A    0.0000
     13 H          87.1494   86.9915   10.4478 H         1      M_A    0.0000
     14 H          88.1511   84.4613   10.0263 H         1      M_A    0.0000
     15 C          86.0066   85.1630   10.2528 C.3       2      M_A    0.0000
     16 C          86.3789   83.9057   11.0803 C.3       2      M_A    0.0000
     17 O          86.9126   82.8659   10.2706 O.3       2      M_A    0.0000
     18 H          85.3274   85.7780   10.8566 H         2      M_A    0.0000
     19 H          85.4612   84.8680    9.3485 H         2      M_A    0.0000
     20 H          87.1652   84.1929   11.7877 H         2      M_A    0.0000
     21 H          86.1045   82.3949    9.9920 H         2      M_A    0.0000
     22 C          85.2065   83.2751   11.8791 C.3       3      M_A    0.0000
     23 C          84.8142   81.8341   11.4625 C.3       3      M_A    0.0000
     24 O          85.9251   81.0922   10.9755 O.3       3      M_A    0.0000
     25 H          85.5169   83.2517   12.9314 H         3      M_A    0.0000
     26 H          84.3334   83.9351   11.8120 H         3      M_A    0.0000
     27 H          84.4531   81.3148   12.3576 H         3      M_A    0.0000
     28 H          85.9209   81.3252   10.0277 H         3      M_A    0.0000
     29 C          83.7180   81.7433   10.3668 C.3       4      M_A    0.0000
     30 C          82.4814   80.8813   10.7299 C.3       4      M_A    0.0000
     31 O          82.6404   79.5216   10.3457 O.3       4      M_A    0.0000
     32 H          83.3739   82.7680   10.1775 H         4      M_A    0.0000
     33 H          84.1712   81.3756    9.4384 H         4      M_A    0.0000
     34 H          82.3755   80.8930   11.8206 H         4      M_A    0.0000
     35 H          82.3126   79.5340    9.4265 H         4      M_A    0.0000
     36 C          81.1433   81.3559   10.1017 C.3       5      M_A    0.0000
     37 C          80.0141   80.2944   10.0559 C.3       5      M_A    0.0000
     38 O          79.6617   79.8258   11.3512 O.3       5      M_A    0.0000
     39 H          80.7912   82.2004   10.7075 H         5      M_A    0.0000
     40 H          81.3388   81.7385    9.0928 H         5      M_A    0.0000
     41 H          79.1218   80.7746    9.6382 H         5      M_A    0.0000
     42 H          80.2928   79.0918   11.4766 H         5      M_A    0.0000
     43 C          80.3338   79.0324    9.2101 C.3       6      M_A    0.0000
     44 C          79.4030   77.8156    9.4490 C.3       6      M_A    0.0000
     45 O          79.7868   77.0589   10.5900 O.3       6      M_A    0.0000
     46 H          80.2446   79.3264    8.1566 H         6      M_A    0.0000
     47 H          81.3780   78.7441    9.3801 H         6      M_A    0.0000
     48 H          78.3959   78.2000    9.6468 H         6      M_A    0.0000
     49 H          80.4358   76.4377   10.2086 H         6      M_A    0.0000
     50 C          79.3215   76.8100    8.2690 C.3       7      M_A    0.0000
     51 C          79.5148   75.3191    8.6483 C.3       7      M_A    0.0000
     52 O          78.7913   74.9624    9.8192 O.3       7      M_A    0.0000
     53 H          78.3234   76.9212    7.8266 H         7      M_A    0.0000
     54 H          80.0509   77.0991    7.5030 H         7      M_A    0.0000
     55 H          79.1129   74.7118    7.8292 H         7      M_A    0.0000
     56 H          79.4296   75.1836   10.5236 H         7      M_A    0.0000
     57 C          80.9859   74.8915    8.9002 C.3       8      M_A    0.0000
     58 C          81.1874   73.4155    9.3302 C.3       8      M_A    0.0000
     59 O          79.9993   72.6468    9.1925 O.3       8      M_A    0.0000
     60 H          81.5267   75.0477    7.9582 H         8      M_A    0.0000
     61 H          81.4298   75.5625    9.6453 H         8      M_A    0.0000
     62 H          81.9324   72.9717    8.6601 H         8      M_A    0.0000
     63 H          79.5634   72.7967   10.0529 H         8      M_A    0.0000
     64 C          81.6647   73.2179   10.7943 C.3       9      M_A    0.0000
     65 C          81.3987   71.8153   11.3993 C.3       9      M_A    0.0000
     66 O          82.0350   70.7801   10.6609 O.3       9      M_A    0.0000
     67 H          82.7485   73.3902   10.7999 H         9      M_A    0.0000
     68 H          81.2092   73.9904   11.4253 H         9      M_A    0.0000
     69 H          81.8309   71.7991   12.4063 H         9      M_A    0.0000
     70 H          81.3614   70.5733    9.9857 H         9      M_A    0.0000
     71 C          79.9013   71.4180   11.5014 C.3      10      M_A    0.0000
     72 C          79.5195   70.5682   12.7408 C.3      10      M_A    0.0000
     73 O          80.5135   70.6188   13.7562 O.3      10      M_A    0.0000
     74 H          79.3277   72.3527   11.5407 H        10      M_A    0.0000
     75 H          79.6078   70.8945   10.5836 H        10      M_A    0.0000
     76 H          78.6056   70.9952   13.1692 H        10      M_A    0.0000
     77 H          81.1081   69.8920   13.4901 H        10      M_A    0.0000
     78 C          79.2698   69.0631   12.4528 C.3      11      M_A    0.0000
     79 C          78.1617   68.3952   13.3073 C.3      11      M_A    0.0000
     80 O          78.6470   67.9508   14.5677 O.3      11      M_A    0.0000
     81 H          78.9775   68.9869   11.3979 H        11      M_A    0.0000
     82 H          80.2131   68.5164   12.5693 H        11      M_A    0.0000
     83 H          77.3958   69.1523   13.5108 H        11      M_A    0.0000
     84 H          78.9674   67.0541   14.3534 H        11      M_A    0.0000
     85 C          77.4759   67.1678   12.6491 C.3      12      M_A    0.0000
     86 C          76.9065   66.1140   13.6337 C.3      12      M_A    0.0000
     87 O          76.5230   66.6889   14.8763 O.3      12      M_A    0.0000
     88 H          76.6438   67.5549   12.0474 H        12      M_A    0.0000
     89 H          78.1826   66.6919   11.9588 H        12      M_A    0.0000
     90 H          75.9993   65.6938   13.1846 H        12      M_A    0.0000
     91 H          77.3580   66.6509   15.3802 H        12      M_A    0.0000
     92 C          77.8711   64.9464   13.9752 C.3      13      M_A    0.0000
     93 C          77.3866   63.5354   13.5529 C.3      13      M_A    0.0000
     94 O          76.3373   63.0546   14.3832 O.3      13      M_A    0.0000
     95 H          78.8142   65.1520   13.4533 H        13      M_A    0.0000
     96 H          78.0842   64.9627   15.0507 H        13      M_A    0.0000
     97 H          76.9790   63.6126   12.5384 H        13      M_A    0.0000
     98 H          76.8345   62.6248   15.1048 H        13      M_A    0.0000
     99 C          78.4829   62.4361   13.5590 C.3      14      M_A    0.0000
    100 C          78.2550   61.2610   12.5734 C.3      14      M_A    0.0000
    101 O          76.9516   60.7049   12.6896 O.3      14      M_A    0.0000
    102 H          79.4259   62.9279   13.2887 H        14      M_A    0.0000
    103 H          78.5972   62.0519   14.5796 H        14      M_A    0.0000
    104 H          78.3415   61.6580   11.5555 H        14      M_A    0.0000
    105 H          77.0802   60.0393   13.3917 H        14      M_A    0.0000
    106 C          79.2471   60.0763   12.7241 C.3      15      M_A    0.0000
    107 C          79.2831   59.0809   11.5359 C.3      15      M_A    0.0000
    108 O          78.0215   58.9661   10.8902 O.3      15      M_A    0.0000
    109 H          80.2479   60.5133   12.8315 H        15      M_A    0.0000
    110 H          79.0244   59.5407   13.6546 H        15      M_A    0.0000
    111 H          79.9858   59.4743   10.7925 H        15      M_A    0.0000
    112 H          77.5920   58.2637   11.4145 H        15      M_A    0.0000
    113 C          79.7155   57.6358   11.9033 C.3      16      M_A    0.0000
    114 C          81.1828   57.2708   11.5601 C.3      16      M_A    0.0000
    115 O          81.5951   57.8115   10.3114 O.3      16      M_A    0.0000
    116 H          79.5846   57.5323   12.9879 H        16      M_A    0.0000
    117 H          79.0311   56.9258   11.4238 H        16      M_A    0.0000
    118 H          81.8257   57.7171   12.3274 H        16      M_A    0.0000
    119 H          81.3171   57.1125    9.6895 H        16      M_A    0.0000
    120 C          81.4821   55.7488   11.4938 C.3      17      M_A    0.0000
    121 C          82.5600   55.2370   12.4839 C.3      17      M_A    0.0000
    122 O          83.8467   55.1542   11.8846 O.3      17      M_A    0.0000
    123 H          80.5411   55.2310   11.7189 H        17      M_A    0.0000
    124 H          81.7612   55.4845   10.4669 H        17      M_A    0.0000
    125 H          82.6358   55.9648   13.2998 H        17      M_A    0.0000
    126 H          83.8306   54.2573   11.4999 H        17      M_A    0.0000
    127 C          82.2766   53.8393   13.0976 C.3      18      M_A    0.0000
    128 C          83.4723   52.8523   13.0899 C.3      18      M_A    0.0000
    129 O          84.4063   53.1448   12.0586 O.3      18      M_A    0.0000
    130 H          81.9805   54.0059   14.1410 H        18      M_A    0.0000
    131 H          81.4180   53.3914   12.5833 H        18      M_A    0.0000
    132 H          84.0041   52.9654   14.0415 H        18      M_A    0.0000
    133 H          84.0379   52.6426   11.3071 H        18      M_A    0.0000
    134 C          83.0886   51.3580   12.9167 C.3      19      M_A    0.0000
    135 C          82.4819   50.6753   14.1697 C.3      19      M_A    0.0000
    136 O          82.4481   49.2590   14.0490 O.3      19      M_A    0.0000
    137 H          82.3441   51.3135   12.1118 H        19      M_A    0.0000
    138 H          83.9694   50.8006   12.5762 H        19      M_A    0.0000
    139 H          83.1307   50.9061   15.0223 H        19      M_A    0.0000
    140 H          81.5907   49.1167   13.6048 H        19      M_A    0.0000
    141 C          81.0350   51.1154   14.5208 C.3      20      M_A    0.0000
    142 C          80.2424   50.1394   15.4282 C.3      20      M_A    0.0000
    143 O          80.8421   48.8516   15.4882 O.3      20      M_A    0.0000
    144 H          81.1146   52.0766   15.0441 H        20      M_A    0.0000
    145 H          80.4816   51.2957   13.5915 H        20      M_A    0.0000
    146 H          80.2570   50.5444   16.4464 H        20      M_A    0.0000
    147 H          80.4356   48.4060   14.7208 H        20      M_A    0.0000
    148 C          78.7642   49.9106   15.0122 C.3      21      M_A    0.0000
    149 C          77.7602   49.7429   16.1817 C.3      21      M_A    0.0000
    150 O          78.3549   50.0098   17.4453 O.3      21      M_A    0.0000
    151 H          78.4606   50.7879   14.4271 H        21      M_A    0.0000
    152 H          78.7116   49.0412   14.3460 H        21      M_A    0.0000
    153 H          76.9617   50.4809   16.0441 H        21      M_A    0.0000
    154 H          78.7182   49.1359   17.6838 H        21      M_A    0.0000
    155 C          77.1139   48.3358   16.2951 C.3      22      M_A    0.0000
    156 C          75.8650   48.2469   17.2097 C.3      22      M_A    0.0000
    157 O          75.9489   49.1264   18.3238 O.3      22      M_A    0.0000
    158 H          76.8137   48.0427   15.2811 H        22      M_A    0.0000
    159 H          77.8743   47.6199   16.6290 H        22      M_A    0.0000
    160 H          74.9968   48.5629   16.6202 H        22      M_A    0.0000
    161 H          76.4188   48.5755   18.9782 H        22      M_A    0.0000
    162 C          75.5766   46.8366   17.7912 C.3      23      M_A    0.0000
    163 C          74.0857   46.5281   18.0848 C.3      23      M_A    0.0000
    164 O          73.3942   47.6557   18.6061 O.3      23      M_A    0.0000
    165 H          75.9344   46.1098   17.0510 H        23      M_A    0.0000
    166 H          76.1740   46.6964   18.6999 H        23      M_A    0.0000
    167 H          73.6047   46.2721   17.1339 H        23      M_A    0.0000
    168 H          73.5605   47.5668   19.5638 H        23      M_A    0.0000
    169 C          73.8408   45.3676   19.0867 C.3      24      M_A    0.0000
    170 C          72.4497   44.6890   18.9944 C.3      24      M_A    0.0000
    171 O          71.4509   45.5716   18.4996 O.3      24      M_A    0.0000
    172 H          74.6043   44.6064   18.8823 H        24      M_A    0.0000
    173 H          74.0117   45.7343   20.1059 H        24      M_A    0.0000
    174 H          72.5282   43.8639   18.2773 H        24      M_A    0.0000
    175 H          71.1422   46.0033   19.3188 H        24      M_A    0.0000
    176 C          71.9049   44.1245   20.3342 C.3      25      M_A    0.0000
    177 C          70.8675   42.9796   20.2032 C.3      25      M_A    0.0000
    178 O          69.9183   43.2272   19.1740 O.3      25      M_A    0.0000
    179 H          72.7688   43.7382   20.8896 H        25      M_A    0.0000
    180 H          71.4817   44.9477   20.9222 H        25      M_A    0.0000
    181 H          71.4095   42.0691   19.9232 H        25      M_A    0.0000
    182 H          69.2361   43.7377   19.6501 H        25      M_A    0.0000
    183 C          70.0474   42.6869   21.4885 C.3      26      M_A    0.0000
    184 C          69.9031   41.1888   21.8612 C.3      26      M_A    0.0000
    185 O          70.2569   40.3290   20.7855 O.3      26      M_A    0.0000
    186 H          70.5617   43.1943   22.3146 H        26      M_A    0.0000
    187 H          69.0563   43.1458   21.3915 H        26      M_A    0.0000
    188 H          70.6027   40.9796   22.6785 H        26      M_A    0.0000
    189 H          69.4105   40.2507   20.3057 H        26      M_A    0.0000
    190 C          68.4806   40.7586   22.3107 C.3      27      M_A    0.0000
    191 C          68.4184   39.4992   23.2130 C.3      27      M_A    0.0000
    192 O          69.2537   38.4522   22.7358 O.3      27      M_A    0.0000
    193 H          68.0582   41.6007   22.8733 H        27      M_A    0.0000
    194 H          67.8543   40.6140   21.4223 H        27      M_A    0.0000
    195 H          68.7948   39.7796   24.2033 H        27      M_A    0.0000
    196 H          68.6591   37.9890   22.1158 H        27      M_A    0.0000
    197 C          67.0037   38.8825   23.3822 C.3      28      M_A    0.0000
    198 C          66.4891   38.7836   24.8415 C.3      28      M_A    0.0000
    199 O          66.9039   37.5824   25.4793 O.3      28      M_A    0.0000
    200 H          66.3106   39.5213   22.8203 H        28      M_A    0.0000
    201 H          66.9876   37.8922   22.9116 H        28      M_A    0.0000
    202 H          66.9298   39.6123   25.4073 H        28      M_A    0.0000
    203 H          66.1904   36.9659   25.2275 H        28      M_A    0.0000
    204 C          64.9459   38.8477   24.9989 C.3      29      M_A    0.0000
    205 C          64.4191   38.7533   26.4541 C.3      29      M_A    0.0000
    206 O          64.6018   37.4578   27.0107 O.3      29      M_A    0.0000
    207 H          64.6251   39.8114   24.5834 H        29      M_A    0.0000
    208 H          64.4917   38.0612   24.3845 H        29      M_A    0.0000
    209 H          65.0053   39.4478   27.0666 H        29      M_A    0.0000
    210 H          63.7865   37.0020   26.7278 H        29      M_A    0.0000
    211 C          62.9145   39.0931   26.6306 C.3      30      M_A    0.0000
    212 C          62.5399   39.7903   27.9639 C.3      30      M_A    0.0000
    213 O          63.2809   40.9855   28.1742 O.3      30      M_A    0.0000
    214 H          62.6433   39.7662   25.8075 H        30      M_A    0.0000
    215 H          62.3252   38.1765   26.5090 H        30      M_A    0.0000
    216 H          61.4839   40.0774   27.9049 H        30      M_A    0.0000
    217 H          64.0808   40.6487   28.6206 H        30      M_A    0.0000
    218 C          62.7427   38.9246   29.2367 C.3      31      M_A    0.0000
    219 C          62.2128   39.5434   30.5559 C.3      31      M_A    0.0000
    220 O          62.5096   40.9301   30.6584 O.3      31      M_A    0.0000
    221 H          62.2093   37.9809   29.0660 H        31      M_A    0.0000
    222 H          63.8075   38.6828   29.3377 H        31      M_A    0.0000
    223 H          61.1207   39.4517   30.5522 H        31      M_A    0.0000
    224 H          63.3957   40.9151   31.0674 H        31      M_A    0.0000
    225 C          62.7561   38.8865   31.8535 C.3      32      M_A    0.0000
    226 C          61.9037   39.1209   33.1273 C.3      32      M_A    0.0000
    227 O          61.8320   40.4957   33.4827 O.3      32      M_A    0.0000
    228 H          62.7985   37.8058   31.6674 H        32      M_A    0.0000
    229 H          63.7842   39.2280   32.0228 H        32      M_A    0.0000
    230 H          60.8804   38.7955   32.9083 H        32      M_A    0.0000
    231 H          62.6252   40.5991   34.0420 H        32      M_A    0.0000
    232 C          62.3968   38.3706   34.3940 C.3      33      M_A    0.0000
    233 C          61.3337   37.4962   35.1076 C.3      33      M_A    0.0000
    234 O          60.3432   37.0116   34.2100 O.3      33      M_A    0.0000
    235 H          63.2168   37.7151   34.0745 H        33      M_A    0.0000
    236 H          62.8174   39.0981   35.0984 H        33      M_A    0.0000
    237 H          61.8455   36.6190   35.5196 H        33      M_A    0.0000
    238 H          59.6930   37.7394   34.2183 H        33      M_A    0.0000
    239 C          60.5678   38.2029   36.2584 C.3      34      M_A    0.0000
    240 C          59.4815   37.3480   36.9607 C.3      34      M_A    0.0000
    241 O          60.0336   36.2306   37.6449 O.3      34      M_A    0.0000
    242 H          61.3159   38.4855   37.0098 H        34      M_A    0.0000
    243 H          60.1250   39.1301   35.8755 H        34      M_A    0.0000
    244 H          58.9994   37.9775   37.7173 H        34      M_A    0.0000
    245 H          60.0539   35.5552   36.9406 H        34      M_A    0.0000
    246 C          58.3830   36.7818   36.0209 C.3      35      M_A    0.0000
    247 C          56.9736   36.6401   36.6515 C.3      35      M_A    0.0000
    248 O          56.8991   37.2295   37.9433 O.3      35      M_A    0.0000
    249 H          58.3070   37.4718   35.1710 H        35      M_A    0.0000
    250 H          58.7154   35.8145   35.6259 H        35      M_A    0.0000
    251 H          56.2668   37.1828   36.0135 H        35      M_A    0.0000
    252 H          57.1862   36.4929   38.5157 H        35      M_A    0.0000
    253 C          56.4699   35.1803   36.8110 C.3      36      M_A    0.0000
    254 C          54.9332   35.0144   36.9345 C.3      36      M_A    0.0000
    255 O          54.3620   35.9446   37.8456 O.3      36      M_A    0.0000
    256 H          56.8000   34.6323   35.9194 H        36      M_A    0.0000
    257 H          56.9664   34.7240   37.6756 H        36      M_A    0.0000
    258 H          54.4953   35.2226   35.9516 H        36      M_A    0.0000
    259 H          54.4421   35.4683   38.6938 H        36      M_A    0.0000
    260 C          54.4598   33.6094   37.3951 C.3      37      M_A    0.0000
    261 C          52.9908   33.5275   37.8845 C.3      37      M_A    0.0000
    262 O          52.5409   34.7532   38.4475 O.3      37      M_A    0.0000
    263 H          54.5680   32.9402   36.5322 H        37      M_A    0.0000
    264 H          55.1359   33.2438   38.1771 H        37      M_A    0.0000
    265 H          52.3591   33.3282   37.0114 H        37      M_A    0.0000
    266 H          52.8153   34.6576   39.3793 H        37      M_A    0.0000
    267 C          52.7144   32.4332   38.9505 C.3      38      M_A    0.0000
    268 C          51.2782   31.8488   38.9499 C.3      38      M_A    0.0000
    269 O          50.3202   32.7730   38.4502 O.3      38      M_A    0.0000
    270 H          53.4150   31.6125   38.7508 H        38      M_A    0.0000
    271 H          52.9556   32.8327   39.9428 H        38      M_A    0.0000
    272 H          51.2696   30.9859   38.2743 H        38      M_A    0.0000
    273 H          50.0773   33.2650   39.2574 H        38      M_A    0.0000
    274 C          50.7557   31.3904   40.3381 C.3      39      M_A    0.0000
    275 C          50.8619   29.8698   40.6222 C.3      39      M_A    0.0000
    276 O          50.0014   29.4567   41.6759 O.3      39      M_A    0.0000
    277 H          51.3531   31.9191   41.0916 H        39      M_A    0.0000
    278 H          49.7170   31.7215   40.4555 H        39      M_A    0.0000
    279 H          50.5373   29.3386   39.7202 H        39      M_A    0.0000
    280 H          50.5626   29.6026   42.4610 H        39      M_A    0.0000
    281 C          52.2824   29.3707   41.0012 C.3      40      M_A    0.0000
    282 C          52.7156   28.0326   40.3485 C.3      40      M_A    0.0000
    283 O          52.6018   28.0621   38.9316 O.3      40      M_A    0.0000
    284 H          52.9871   30.1486   40.6810 H        40      M_A    0.0000
    285 H          52.3546   29.2956   42.0927 H        40      M_A    0.0000
    286 H          53.7757   27.8771   40.5790 H        40      M_A    0.0000
    287 H          51.6764   27.7814   38.7996 H        40      M_A    0.0000
    288 H          52.1587   27.1565   40.6807 H        40      M_A    0.0000
    289 H          90.1273   88.1109    6.9985 H         0      M_A    0.0000
@<TRIPOS>BOND
     1     1     2      1
     2     1     4      1
     3     1     5      1
     4     1   289      1
     5     2     3      1
     6     2     6      1
     7     2     8      1
     8     3     7      1
     9     8     9      1
    10     8    11      1
    11     8    12      1
    12     9    10      1
    13     9    13      1
    14     9    15      1
    15    10    14      1
    16    15    16      1
    17    15    18      1
    18    15    19      1
    19    16    17      1
    20    16    20      1
    21    16    22      1
    22    17    21      1
    23    22    23      1
    24    22    25      1
    25    22    26      1
    26    23    24      1
    27    23    27      1
    28    23    29      1
    29    24    28      1
    30    29    30      1
    31    29    32      1
    32    29    33      1
    33    30    31      1
    34    30    34      1
    35    30    36      1
    36    31    35      1
    37    36    37      1
    38    36    39      1
    39    36    40      1
    40    37    38      1
    41    37    41      1
    42    37    43      1
    43    38    42      1
    44    43    44      1
    45    43    46      1
    46    43    47      1
    47    44    45      1
    48    44    48      1
    49    44    50      1
    50    45    49      1
    51    50    51      1
    52    50    53      1
    53    50    54      1
    54    51    52      1
    55    51    55      1
    56    51    57      1
    57    52    56      1
    58    57    58      1
    59    57    60      1
    60    57    61      1
    61    58    59      1
    62    58    62      1
    63    58    64      1
    64    59    63      1
    65    64    65      1
    66    64    67      1
    67    64    68      1
    68    65    66      1
    69    65    69      1
    70    65    71      1
    71    66    70      1
    72    71    72      1
    73    71    74      1
    74    71    75      1
    75    72    73      1
    76    72    76      1
    77    72    78      1
    78    73    77      1
    79    78    79      1
    80    78    81      1
    81    78    82      1
    82    79    80      1
    83    79    83      1
    84    79    85      1
    85    80    84      1
    86    85    86      1
    87    85    88      1
    88    85    89      1
    89    86    87      1
    90    86    90      1
    91    86    92      1
    92    87    91      1
    93    92    93      1
    94    92    95      1
    95    92    96      1
    96    93    94      1
    97    93    97      1
    98    93    99      1
    99    94    98      1
   100    99   100      1
   101    99   102      1
   102    99   103      1
   103   100   101      1
   104   100   104      1
   105   100   106      1
   106   101   105      1
   107   106   107      1
   108   106   109      1
   109   106   110      1
   110   107   108      1
   111   107   111      1
   112   107   113      1
   113   108   112      1
   114   113   114      1
   115   113   116      1
   116   113   117      1
   117   114   115      1
   118   114   118      1
   119   114   120      1
   120   115   119      1
   121   120   121      1
   122   120   123      1
   123   120   124      1
   124   121   122      1
   125   121   125      1
   126   121   127      1
   127   122   126      1
   128   127   128      1
   129   127   130      1
   130   127   131      1
   131   128   129      1
   132   128   132      1
   133   128   134      1
   134   129   133      1
   135   134   135      1
   136   134   137      1
   137   134   138      1
   138   135   136      1
   139   135   139      1
   140   135   141      1
   141   136   140      1
   142   141   142      1
   143   141   144      1
   144   141   145      1
   145   142   143      1
   146   142   146      1
   147   142   148      1
   148   143   147      1
   149   148   149      1
   150   148   151      1
   151   148   152      1
   152   149   150      1
   153   149   153      1
   154   149   155      1
   155   150   154      1
   156   155   156      1
   157   155   158      1
   158   155   159      1
   159   156   157      1
   160   156   160      1
   161   156   162      1
   162   157   161      1
   163   162   163      1
   164   162   165      1
   165   162   166      1
   166   163   164      1
   167   163   167      1
   168   163   169      1
   169   164   168      1
   170   169   170      1
   171   169   172      1
   172   169   173      1
   173   170   171      1
   174   170   174      1
   175   170   176      1
   176   171   175      1
   177   176   177      1
   178   176   179      1
   179   176   180      1
   180   177   178      1
   181   177   181      1
   182   177   183      1
   183   178   182      1
   184   183   184      1
   185   183   186      1
   186   183   187      1
   187   184   185      1
   188   184   188      1
   189   184   190      1
   190   185   189      1
   191   190   191      1
   192   190   193      1
   193   190   194      1
   194   191   192      1
   195   191   195      1
   196   191   197      1
   197   192   196      1
   198   197   198      1
   199   197   200      1
   200   197   201      1
   201   198   199      1
   202   198   202      1
   203   198   204      1
   204   199   203      1
   205   204   205      1
   206   204   207      1
   207   204   208      1
   208   205   206      1
   209   205   209      1
   210   205   211      1
   211   206   210      1
   212   211   212      1
   213   211   214      1
   214   211   215      1
   215   212   213      1
   216   212   216      1
   217   212   218      1
   218   213   217      1
   219   218   219      1
   220   218   221      1
   221   218   222      1
   222   219   220      1
   223   219   223      1
   224   219   225      1
   225   220   224      1
   226   225   226      1
   227   225   228      1
   228   225   229      1
   229   226   227      1
   230   226   230      1
   231   226   232      1
   232   227   231      1
   233   232   233      1
   234   232   235      1
   235   232   236      1
   236   233   234      1
   237   233   237      1
   238   233   239      1
   239   234   238      1
   240   239   240      1
   241   239   242      1
   242   239   243      1
   243   240   241      1
   244   240   244      1
   245   240   246      1
   246   241   245      1
   247   246   247      1
   248   246   249      1
   249   246   250      1
   250   247   248      1
   251   247   251      1
   252   247   253      1
   253   248   252      1
   254   253   254      1
   255   253   256      1
   256   253   257      1
   257   254   255      1
   258   254   258      1
   259   254   260      1
   260   255   259      1
   261   260   261      1
   262   260   263      1
   263   260   264      1
   264   261   262      1
   265   261   265      1
   266   261   267      1
   267   262   266      1
   268   267   268      1
   269   267   270      1
   270   267   271      1
   271   268   269      1
   272   268   272      1
   273   268   274      1
   274   269   273      1
   275   274   275      1
   276   274   277      1
   277   274   278      1
   278   275   276      1
   279   275   279      1
   280   275   281      1
   281   276   280      1
   282   281   282      1
   283   281   284      1
   284   281   285      1
   285   282   283      1
   286   282   286      1
   287   282   288      1
   288   283   287      1
