###
### Created by PolyChef-cpp17 on Tue Apr 15 15:28:43 2025
###

@<TRIPOS>MOLECULE
NO_INFO
212 211 1 0 0
SMALL
USER_CHARGES


@<TRIPOS>ATOM
      1 C          31.7155   21.8296   40.6915 C.3       0      M_A    0.0000
      2 C          31.8647   22.6100   42.0204 C.3       0      M_A    0.0000
      3 O          30.9695   22.1093   43.0172 O.3       0      M_A    0.0000
      4 H          30.9082   22.2642   40.0886 H         0      M_A    0.0000
      5 H          32.6396   21.8899   40.1047 H         0      M_A    0.0000
      6 H          32.8828   22.4953   42.4113 H         0      M_A    0.0000
      7 H          31.1105   21.1445   43.0200 H         0      M_A    0.0000
      8 C          31.5577   24.1240   41.8403 C.3       1      M_A    0.0000
      9 C          32.0303   24.6386   40.4586 C.3       1      M_A    0.0000
     10 O          33.3883   24.2678   40.2058 O.3       1      M_A    0.0000
     11 H          32.0722   24.6698   42.6412 H         1      M_A    0.0000
     12 H          30.4806   24.2879   41.9634 H         1      M_A    0.0000
     13 H          31.4193   24.1953   39.6634 H         1      M_A    0.0000
     14 H          33.4260   23.3109   40.3893 H         1      M_A    0.0000
     15 C          31.9469   26.1884   40.3587 C.3       2      M_A    0.0000
     16 C          33.2204   26.7848   39.7106 C.3       2      M_A    0.0000
     17 O          34.2459   26.9957   40.6849 O.3       2      M_A    0.0000
     18 H          31.8203   26.5853   41.3738 H         2      M_A    0.0000
     19 H          31.0570   26.4624   39.7799 H         2      M_A    0.0000
     20 H          33.6213   26.0910   38.9621 H         2      M_A    0.0000
     21 H          34.3146   26.1497   41.1649 H         2      M_A    0.0000
     22 C          32.9371   28.1553   39.0321 C.3       3      M_A    0.0000
     23 C          33.7979   29.2838   39.6507 C.3       3      M_A    0.0000
     24 O          33.1145   30.5394   39.6050 O.3       3      M_A    0.0000
     25 H          31.8712   28.3814   39.1614 H         3      M_A    0.0000
     26 H          33.1318   28.0693   37.9566 H         3      M_A    0.0000
     27 H          34.0036   29.0644   40.7052 H         3      M_A    0.0000
     28 H          32.2332   30.3599   39.9817 H         3      M_A    0.0000
     29 C          35.1465   29.4626   38.8970 C.3       4      M_A    0.0000
     30 C          36.0256   30.5528   39.5571 C.3       4      M_A    0.0000
     31 O          35.4530   31.8522   39.3860 O.3       4      M_A    0.0000
     32 H          34.9188   29.7399   37.8600 H         4      M_A    0.0000
     33 H          35.6754   28.5024   38.8771 H         4      M_A    0.0000
     34 H          36.1024   30.3713   40.6358 H         4      M_A    0.0000
     35 H          34.5259   31.7582   39.6729 H         4      M_A    0.0000
     36 C          37.4552   30.5922   38.9459 C.3       5      M_A    0.0000
     37 C          38.4254   31.4197   39.8241 C.3       5      M_A    0.0000
     38 O          38.3296   32.8153   39.5262 O.3       5      M_A    0.0000
     39 H          37.3817   31.0364   37.9453 H         5      M_A    0.0000
     40 H          37.8230   29.5660   38.8292 H         5      M_A    0.0000
     41 H          38.1718   31.2957   40.8837 H         5      M_A    0.0000
     42 H          37.3760   33.0153   39.5623 H         5      M_A    0.0000
     43 C          39.9066   30.9996   39.6042 C.3       6      M_A    0.0000
     44 C          40.8864   32.0448   40.1915 C.3       6      M_A    0.0000
     45 O          40.6110   33.3535   39.6845 O.3       6      M_A    0.0000
     46 H          40.0706   30.8955   38.5242 H         6      M_A    0.0000
     47 H          40.0720   30.0176   40.0629 H         6      M_A    0.0000
     48 H          40.7787   32.0898   41.2818 H         6      M_A    0.0000
     49 H          39.6534   33.4789   39.8189 H         6      M_A    0.0000
     50 C          42.3649   31.7136   39.8406 C.3       7      M_A    0.0000
     51 C          43.2619   32.9735   39.9146 C.3       7      M_A    0.0000
     52 O          42.6614   34.0763   39.2299 O.3       7      M_A    0.0000
     53 H          42.3851   31.2964   38.8260 H         7      M_A    0.0000
     54 H          42.7310   30.9406   40.5265 H         7      M_A    0.0000
     55 H          43.3993   33.2761   40.9595 H         7      M_A    0.0000
     56 H          41.7526   34.1249   39.5797 H         7      M_A    0.0000
     57 C          44.6557   32.7305   39.2688 C.3       8      M_A    0.0000
     58 C          45.3165   34.0594   38.8277 C.3       8      M_A    0.0000
     59 O          44.3358   35.0035   38.3889 O.3       8      M_A    0.0000
     60 H          44.5152   32.0740   38.4009 H         8      M_A    0.0000
     61 H          45.2954   32.2029   39.9861 H         8      M_A    0.0000
     62 H          45.8487   34.5130   39.6724 H         8      M_A    0.0000
     63 H          43.6695   35.0231   39.1005 H         8      M_A    0.0000
     64 C          46.3142   33.8481   37.6536 C.3       9      M_A    0.0000
     65 C          47.0782   35.1518   37.3161 C.3       9      M_A    0.0000
     66 O          46.1976   36.1424   36.7785 O.3       9      M_A    0.0000
     67 H          45.7409   33.5113   36.7807 H         9      M_A    0.0000
     68 H          47.0164   33.0493   37.9199 H         9      M_A    0.0000
     69 H          47.5235   35.5725   38.2255 H         9      M_A    0.0000
     70 H          45.4521   36.1831   37.4056 H         9      M_A    0.0000
     71 C          48.2000   34.9102   36.2663 C.3      10      M_A    0.0000
     72 C          48.0629   35.8689   35.0582 C.3      10      M_A    0.0000
     73 O          46.6931   36.0322   34.6807 O.3      10      M_A    0.0000
     74 H          48.1279   33.8683   35.9298 H        10      M_A    0.0000
     75 H          49.1758   35.0380   36.7494 H        10      M_A    0.0000
     76 H          48.4479   36.8615   35.3207 H        10      M_A    0.0000
     77 H          46.2282   36.2506   35.5095 H        10      M_A    0.0000
     78 C          48.8276   35.3413   33.8109 C.3      11      M_A    0.0000
     79 C          50.2555   35.9342   33.7276 C.3      11      M_A    0.0000
     80 O          50.2515   37.1999   33.0616 O.3      11      M_A    0.0000
     81 H          48.2518   35.6206   32.9196 H        11      M_A    0.0000
     82 H          48.8680   34.2465   33.8525 H        11      M_A    0.0000
     83 H          50.6532   36.0993   34.7361 H        11      M_A    0.0000
     84 H          49.5533   37.7157   33.5057 H        11      M_A    0.0000
     85 C          51.2246   35.0023   32.9460 C.3      12      M_A    0.0000
     86 C          52.0586   34.1179   33.9049 C.3      12      M_A    0.0000
     87 O          53.2226   33.6032   33.2524 O.3      12      M_A    0.0000
     88 H          51.8890   35.6353   32.3445 H        12      M_A    0.0000
     89 H          50.6433   34.3789   32.2563 H        12      M_A    0.0000
     90 H          52.4019   34.7116   34.7606 H        12      M_A    0.0000
     91 H          53.6453   34.3802   32.8421 H        12      M_A    0.0000
     92 C          51.2431   32.9005   34.4262 C.3      13      M_A    0.0000
     93 C          51.6097   31.6035   33.6642 C.3      13      M_A    0.0000
     94 O          52.2446   31.8985   32.4170 O.3      13      M_A    0.0000
     95 H          50.1777   33.1267   34.2929 H        13      M_A    0.0000
     96 H          51.4268   32.7801   35.5003 H        13      M_A    0.0000
     97 H          52.3157   31.0075   34.2549 H        13      M_A    0.0000
     98 H          52.9536   32.5300   32.6390 H        13      M_A    0.0000
     99 C          50.3539   30.7407   33.3523 C.3      14      M_A    0.0000
    100 C          50.7413   29.3837   32.7153 C.3      14      M_A    0.0000
    101 O          51.8183   29.5373   31.7868 O.3      14      M_A    0.0000
    102 H          49.7159   31.3104   32.6649 H        14      M_A    0.0000
    103 H          49.7889   30.5830   34.2785 H        14      M_A    0.0000
    104 H          51.0790   28.6869   33.4917 H        14      M_A    0.0000
    105 H          52.4984   30.0405   32.2715 H        14      M_A    0.0000
    106 C          49.5514   28.7458   31.9433 C.3      15      M_A    0.0000
    107 C          48.9448   27.5522   32.7210 C.3      15      M_A    0.0000
    108 O          48.6733   26.4516   31.8490 O.3      15      M_A    0.0000
    109 H          49.9243   28.4088   30.9680 H        15      M_A    0.0000
    110 H          48.7896   29.5133   31.7622 H        15      M_A    0.0000
    111 H          49.6536   27.1985   33.4792 H        15      M_A    0.0000
    112 H          49.4999   26.3163   31.3498 H        15      M_A    0.0000
    113 C          47.6067   27.9340   33.4158 C.3      16      M_A    0.0000
    114 C          46.9312   26.7004   34.0633 C.3      16      M_A    0.0000
    115 O          46.5680   26.9634   35.4214 O.3      16      M_A    0.0000
    116 H          46.9452   28.3699   32.6566 H        16      M_A    0.0000
    117 H          47.8025   28.7050   34.1702 H        16      M_A    0.0000
    118 H          46.0101   26.4499   33.5236 H        16      M_A    0.0000
    119 H          46.0787   27.8063   35.3922 H        16      M_A    0.0000
    120 C          47.8707   25.4610   34.0665 C.3      17      M_A    0.0000
    121 C          47.2693   24.2949   34.8886 C.3      17      M_A    0.0000
    122 O          46.4672   24.7829   35.9676 O.3      17      M_A    0.0000
    123 H          48.8321   25.7681   34.4970 H        17      M_A    0.0000
    124 H          48.0532   25.1475   33.0319 H        17      M_A    0.0000
    125 H          46.6195   23.6824   34.2522 H        17      M_A    0.0000
    126 H          45.8636   25.4307   35.5592 H        17      M_A    0.0000
    127 C          48.3745   23.3908   35.5050 C.3      18      M_A    0.0000
    128 C          48.5283   22.0660   34.7184 C.3      18      M_A    0.0000
    129 O          47.2846   21.3641   34.6399 O.3      18      M_A    0.0000
    130 H          48.0965   23.1804   36.5453 H        18      M_A    0.0000
    131 H          49.3221   23.9422   35.5178 H        18      M_A    0.0000
    132 H          48.8489   22.2743   33.6906 H        18      M_A    0.0000
    133 H          46.6417   22.0261   34.3251 H        18      M_A    0.0000
    134 C          49.5577   21.1115   35.3877 C.3      19      M_A    0.0000
    135 C          50.6256   20.6286   34.3758 C.3      19      M_A    0.0000
    136 O          50.0259   19.9065   33.2967 O.3      19      M_A    0.0000
    137 H          49.0075   20.2528   35.7924 H        19      M_A    0.0000
    138 H          50.0324   21.6302   36.2290 H        19      M_A    0.0000
    139 H          51.1470   21.4894   33.9403 H        19      M_A    0.0000
    140 H          49.3039   20.4804   32.9805 H        19      M_A    0.0000
    141 C          51.6689   19.6863   35.0408 C.3      20      M_A    0.0000
    142 C          52.3233   18.7416   34.0032 C.3      20      M_A    0.0000
    143 O          51.4203   18.4421   32.9352 O.3      20      M_A    0.0000
    144 H          51.1511   19.0994   35.8098 H        20      M_A    0.0000
    145 H          52.4317   20.2938   35.5420 H        20      M_A    0.0000
    146 H          53.2030   19.2227   33.5593 H        20      M_A    0.0000
    147 H          51.0866   19.3086   32.6376 H        20      M_A    0.0000
    148 C          52.7517   17.3893   34.6407 C.3      21      M_A    0.0000
    149 C          53.0773   16.3298   33.5596 C.3      21      M_A    0.0000
    150 O          51.8949   15.6494   33.1301 O.3      21      M_A    0.0000
    151 H          51.9270   17.0391   35.2742 H        21      M_A    0.0000
    152 H          53.6208   17.5579   35.2874 H        21      M_A    0.0000
    153 H          53.5115   16.8147   32.6771 H        21      M_A    0.0000
    154 H          51.2599   16.3582   32.9178 H        21      M_A    0.0000
    155 C          54.0674   15.2517   34.0851 C.3      22      M_A    0.0000
    156 C          54.6363   14.3921   32.9299 C.3      22      M_A    0.0000
    157 O          53.7163   14.3208   31.8371 O.3      22      M_A    0.0000
    158 H          53.5260   14.6152   34.7963 H        22      M_A    0.0000
    159 H          54.8789   15.7469   34.6312 H        22      M_A    0.0000
    160 H          55.5606   14.8412   32.5473 H        22      M_A    0.0000
    161 H          53.4681   15.2462   31.6565 H        22      M_A    0.0000
    162 C          54.9304   12.9339   33.3839 C.3      23      M_A    0.0000
    163 C          56.1723   12.3545   32.6632 C.3      23      M_A    0.0000
    164 O          56.4119   11.0000   33.0548 O.3      23      M_A    0.0000
    165 H          54.0459   12.3255   33.1572 H        23      M_A    0.0000
    166 H          55.0755   12.9198   34.4706 H        23      M_A    0.0000
    167 H          56.0116   12.3553   31.5785 H        23      M_A    0.0000
    168 H          55.5532   10.5511   32.9462 H        23      M_A    0.0000
    169 C          57.4597   13.1650   32.9862 C.3      24      M_A    0.0000
    170 C          58.6340   12.7568   32.0634 C.3      24      M_A    0.0000
    171 O          58.7942   11.3360   32.0285 O.3      24      M_A    0.0000
    172 H          57.7223   12.9766   34.0348 H        24      M_A    0.0000
    173 H          57.2443   14.2351   32.8833 H        24      M_A    0.0000
    174 H          58.4370   13.0867   31.0364 H        24      M_A    0.0000
    175 H          57.9037   10.9871   31.8387 H        24      M_A    0.0000
    176 C          59.9839   13.3637   32.5414 C.3      25      M_A    0.0000
    177 C          61.1558   12.9333   31.6256 C.3      25      M_A    0.0000
    178 O          60.8958   11.6666   31.0144 O.3      25      M_A    0.0000
    179 H          60.1630   13.0203   33.5680 H        25      M_A    0.0000
    180 H          59.8965   14.4564   32.5655 H        25      M_A    0.0000
    181 H          61.2886   13.6625   30.8175 H        25      M_A    0.0000
    182 H          60.0043   11.7518   30.6287 H        25      M_A    0.0000
    183 C          62.4893   12.8019   32.4151 C.3      26      M_A    0.0000
    184 C          63.5721   12.0722   31.5830 C.3      26      M_A    0.0000
    185 O          64.8868   12.4421   32.0078 O.3      26      M_A    0.0000
    186 H          62.2820   12.2423   33.3359 H        26      M_A    0.0000
    187 H          62.8348   13.8018   32.7029 H        26      M_A    0.0000
    188 H          63.4810   10.9876   31.7162 H        26      M_A    0.0000
    189 H          64.8802   12.3261   32.9759 H        26      M_A    0.0000
    190 C          63.4627   12.4086   30.0685 C.3      27      M_A    0.0000
    191 C          64.0684   11.2850   29.1922 C.3      27      M_A    0.0000
    192 O          65.0348   11.8079   28.2765 O.3      27      M_A    0.0000
    193 H          63.9962   13.3513   29.8933 H        27      M_A    0.0000
    194 H          62.4087   12.5693   29.8128 H        27      M_A    0.0000
    195 H          64.5836   10.5519   29.8244 H        27      M_A    0.0000
    196 H          65.6317   12.3509   28.8238 H        27      M_A    0.0000
    197 C          62.9811   10.5561   28.3524 C.3      28      M_A    0.0000
    198 C          63.2022    9.0237   28.3449 C.3      28      M_A    0.0000
    199 O          62.3770    8.3872   27.3653 O.3      28      M_A    0.0000
    200 H          63.0274   10.9479   27.3285 H        28      M_A    0.0000
    201 H          61.9923   10.7997   28.7584 H        28      M_A    0.0000
    202 H          64.2439    8.7956   28.0895 H        28      M_A    0.0000
    203 H          62.5303    8.8885   26.5432 H        28      M_A    0.0000
    204 C          62.8650    8.3835   29.7215 C.3      29      M_A    0.0000
    205 C          63.1810    6.8678   29.7354 C.3      29      M_A    0.0000
    206 O          62.3872    6.1655   28.7751 O.3      29      M_A    0.0000
    207 H          61.7978    8.5470   29.9169 H        29      M_A    0.0000
    208 H          63.4308    8.9010   30.5051 H        29      M_A    0.0000
    209 H          64.2323    6.7007   29.4720 H        29      M_A    0.0000
    210 H          62.5007    6.6620   27.9436 H        29      M_A    0.0000
    211 H          62.9829    6.4209   30.7096 H        29      M_A    0.0000
    212 H          31.4741   20.7815   40.8684 H         0      M_A    0.0000
@<TRIPOS>BOND
     1     1     2      1
     2     1     4      1
     3     1     5      1
     4     1   212      1
     5     2     3      1
     6     2     6      1
     7     2     8      1
     8     3     7      1
     9     8     9      1
    10     8    11      1
    11     8    12      1
    12     9    10      1
    13     9    13      1
    14     9    15      1
    15    10    14      1
    16    15    16      1
    17    15    18      1
    18    15    19      1
    19    16    17      1
    20    16    20      1
    21    16    22      1
    22    17    21      1
    23    22    23      1
    24    22    25      1
    25    22    26      1
    26    23    24      1
    27    23    27      1
    28    23    29      1
    29    24    28      1
    30    29    30      1
    31    29    32      1
    32    29    33      1
    33    30    31      1
    34    30    34      1
    35    30    36      1
    36    31    35      1
    37    36    37      1
    38    36    39      1
    39    36    40      1
    40    37    38      1
    41    37    41      1
    42    37    43      1
    43    38    42      1
    44    43    44      1
    45    43    46      1
    46    43    47      1
    47    44    45      1
    48    44    48      1
    49    44    50      1
    50    45    49      1
    51    50    51      1
    52    50    53      1
    53    50    54      1
    54    51    52      1
    55    51    55      1
    56    51    57      1
    57    52    56      1
    58    57    58      1
    59    57    60      1
    60    57    61      1
    61    58    59      1
    62    58    62      1
    63    58    64      1
    64    59    63      1
    65    64    65      1
    66    64    67      1
    67    64    68      1
    68    65    66      1
    69    65    69      1
    70    65    71      1
    71    66    70      1
    72    71    72      1
    73    71    74      1
    74    71    75      1
    75    72    73      1
    76    72    76      1
    77    72    78      1
    78    73    77      1
    79    78    79      1
    80    78    81      1
    81    78    82      1
    82    79    80      1
    83    79    83      1
    84    79    85      1
    85    80    84      1
    86    85    86      1
    87    85    88      1
    88    85    89      1
    89    86    87      1
    90    86    90      1
    91    86    92      1
    92    87    91      1
    93    92    93      1
    94    92    95      1
    95    92    96      1
    96    93    94      1
    97    93    97      1
    98    93    99      1
    99    94    98      1
   100    99   100      1
   101    99   102      1
   102    99   103      1
   103   100   101      1
   104   100   104      1
   105   100   106      1
   106   101   105      1
   107   106   107      1
   108   106   109      1
   109   106   110      1
   110   107   108      1
   111   107   111      1
   112   107   113      1
   113   108   112      1
   114   113   114      1
   115   113   116      1
   116   113   117      1
   117   114   115      1
   118   114   118      1
   119   114   120      1
   120   115   119      1
   121   120   121      1
   122   120   123      1
   123   120   124      1
   124   121   122      1
   125   121   125      1
   126   121   127      1
   127   122   126      1
   128   127   128      1
   129   127   130      1
   130   127   131      1
   131   128   129      1
   132   128   132      1
   133   128   134      1
   134   129   133      1
   135   134   135      1
   136   134   137      1
   137   134   138      1
   138   135   136      1
   139   135   139      1
   140   135   141      1
   141   136   140      1
   142   141   142      1
   143   141   144      1
   144   141   145      1
   145   142   143      1
   146   142   146      1
   147   142   148      1
   148   143   147      1
   149   148   149      1
   150   148   151      1
   151   148   152      1
   152   149   150      1
   153   149   153      1
   154   149   155      1
   155   150   154      1
   156   155   156      1
   157   155   158      1
   158   155   159      1
   159   156   157      1
   160   156   160      1
   161   156   162      1
   162   157   161      1
   163   162   163      1
   164   162   165      1
   165   162   166      1
   166   163   164      1
   167   163   167      1
   168   163   169      1
   169   164   168      1
   170   169   170      1
   171   169   172      1
   172   169   173      1
   173   170   171      1
   174   170   174      1
   175   170   176      1
   176   171   175      1
   177   176   177      1
   178   176   179      1
   179   176   180      1
   180   177   178      1
   181   177   181      1
   182   177   183      1
   183   178   182      1
   184   183   184      1
   185   183   186      1
   186   183   187      1
   187   184   185      1
   188   184   188      1
   189   184   190      1
   190   185   189      1
   191   190   191      1
   192   190   193      1
   193   190   194      1
   194   191   192      1
   195   191   195      1
   196   191   197      1
   197   192   196      1
   198   197   198      1
   199   197   200      1
   200   197   201      1
   201   198   199      1
   202   198   202      1
   203   198   204      1
   204   199   203      1
   205   204   205      1
   206   204   207      1
   207   204   208      1
   208   205   206      1
   209   205   209      1
   210   205   211      1
   211   206   210      1
