###
### Created by PolyChef-cpp17 on Tue Apr 15 15:28:42 2025
###

@<TRIPOS>MOLECULE
NO_INFO
135 134 1 0 0
SMALL
USER_CHARGES


@<TRIPOS>ATOM
      1 C          31.7244   57.6113    4.4138 C.3       0      M_A    0.0000
      2 C          32.4023   58.8081    3.6981 C.3       0      M_A    0.0000
      3 O          31.6288   59.2928    2.6080 O.3       0      M_A    0.0000
      4 H          30.6600   57.5733    4.1533 H         0      M_A    0.0000
      5 H          31.7889   57.7819    5.4959 H         0      M_A    0.0000
      6 H          33.3516   58.4529    3.2810 H         0      M_A    0.0000
      7 H          31.0446   59.9384    3.0490 H         0      M_A    0.0000
      8 C          32.6927   60.0353    4.6037 C.3       1      M_A    0.0000
      9 C          31.5784   61.1127    4.6447 C.3       1      M_A    0.0000
     10 O          30.3099   60.5641    4.9784 O.3       1      M_A    0.0000
     11 H          32.9125   59.6851    5.6193 H         1      M_A    0.0000
     12 H          33.6056   60.5054    4.2166 H         1      M_A    0.0000
     13 H          31.4867   61.5360    3.6380 H         1      M_A    0.0000
     14 H          30.3266   60.6007    5.9536 H         1      M_A    0.0000
     15 C          31.8253   62.2743    5.6449 C.3       2      M_A    0.0000
     16 C          30.6280   63.2356    5.8597 C.3       2      M_A    0.0000
     17 O          29.6370   62.6799    6.7145 O.3       2      M_A    0.0000
     18 H          32.1463   61.8552    6.6060 H         2      M_A    0.0000
     19 H          32.6644   62.8601    5.2487 H         2      M_A    0.0000
     20 H          30.1523   63.3987    4.8859 H         2      M_A    0.0000
     21 H          29.9598   62.9484    7.5956 H         2      M_A    0.0000
     22 C          30.9962   64.6177    6.4636 C.3       3      M_A    0.0000
     23 C          30.1161   65.0823    7.6525 C.3       3      M_A    0.0000
     24 O          30.1545   64.1685    8.7412 O.3       3      M_A    0.0000
     25 H          32.0517   64.6073    6.7606 H         3      M_A    0.0000
     26 H          30.8924   65.3537    5.6563 H         3      M_A    0.0000
     27 H          29.0775   65.1183    7.3045 H         3      M_A    0.0000
     28 H          30.9296   64.4866    9.2418 H         3      M_A    0.0000
     29 C          30.4856   66.4715    8.2390 C.3       4      M_A    0.0000
     30 C          30.7821   66.4959    9.7607 C.3       4      M_A    0.0000
     31 O          29.6208   66.2413   10.5405 O.3       4      M_A    0.0000
     32 H          31.3403   66.8769    7.6844 H         4      M_A    0.0000
     33 H          29.6309   67.1329    8.0489 H         4      M_A    0.0000
     34 H          31.1224   67.5055   10.0179 H         4      M_A    0.0000
     35 H          29.6265   65.2668   10.5950 H         4      M_A    0.0000
     36 C          31.8555   65.4801   10.2365 C.3       5      M_A    0.0000
     37 C          33.3263   65.8833    9.9566 C.3       5      M_A    0.0000
     38 O          34.2539   65.0268   10.6104 O.3       5      M_A    0.0000
     39 H          31.7167   65.2899   11.3074 H         5      M_A    0.0000
     40 H          31.6555   64.5383    9.7100 H         5      M_A    0.0000
     41 H          33.4798   66.8887   10.3649 H         5      M_A    0.0000
     42 H          34.3656   64.3142    9.9528 H         5      M_A    0.0000
     43 C          33.7293   65.8957    8.4573 C.3       6      M_A    0.0000
     44 C          35.1466   66.4453    8.1519 C.3       6      M_A    0.0000
     45 O          36.1724   65.6176    8.6850 O.3       6      M_A    0.0000
     46 H          33.6253   64.8822    8.0516 H         6      M_A    0.0000
     47 H          32.9998   66.5304    7.9386 H         6      M_A    0.0000
     48 H          35.2386   67.4211    8.6425 H         6      M_A    0.0000
     49 H          36.3081   64.9766    7.9616 H         6      M_A    0.0000
     50 C          35.4712   66.6216    6.6440 C.3       7      M_A    0.0000
     51 C          36.7794   67.3918    6.3286 C.3       7      M_A    0.0000
     52 O          37.3640   67.9611    7.4930 O.3       7      M_A    0.0000
     53 H          35.4931   65.6349    6.1661 H         7      M_A    0.0000
     54 H          34.6346   67.1784    6.2030 H         7      M_A    0.0000
     55 H          36.5243   68.2235    5.6621 H         7      M_A    0.0000
     56 H          37.9204   67.2273    7.8164 H         7      M_A    0.0000
     57 C          37.8926   66.5457    5.6538 C.3       8      M_A    0.0000
     58 C          39.1381   67.3382    5.1796 C.3       8      M_A    0.0000
     59 O          38.7887   68.5542    4.5310 O.3       8      M_A    0.0000
     60 H          38.1965   65.7450    6.3384 H         8      M_A    0.0000
     61 H          37.4391   66.0686    4.7757 H         8      M_A    0.0000
     62 H          39.6630   66.7230    4.4400 H         8      M_A    0.0000
     63 H          38.7306   69.1727    5.2838 H         8      M_A    0.0000
     64 C          40.1407   67.7180    6.3025 C.3       9      M_A    0.0000
     65 C          41.5765   68.0600    5.8274 C.3       9      M_A    0.0000
     66 O          41.6262   69.2770    5.0939 O.3       9      M_A    0.0000
     67 H          39.7288   68.5535    6.8809 H         9      M_A    0.0000
     68 H          40.2028   66.8545    6.9769 H         9      M_A    0.0000
     69 H          41.9004   67.2649    5.1461 H         9      M_A    0.0000
     70 H          41.7475   69.9341    5.8052 H         9      M_A    0.0000
     71 C          42.6285   68.1935    6.9612 C.3      10      M_A    0.0000
     72 C          44.0185   67.5770    6.6578 C.3      10      M_A    0.0000
     73 O          44.8054   68.4095    5.8156 O.3      10      M_A    0.0000
     74 H          42.7379   69.2526    7.2234 H        10      M_A    0.0000
     75 H          42.2144   67.6818    7.8392 H        10      M_A    0.0000
     76 H          43.8558   66.6389    6.1150 H        10      M_A    0.0000
     77 H          45.2478   68.9890    6.4644 H        10      M_A    0.0000
     78 C          44.8898   67.2764    7.9071 C.3      11      M_A    0.0000
     79 C          46.2646   67.9921    7.9496 C.3      11      M_A    0.0000
     80 O          46.3694   69.0172    6.9699 O.3      11      M_A    0.0000
     81 H          44.3147   67.5164    8.8093 H        11      M_A    0.0000
     82 H          45.0701   66.1940    7.9143 H        11      M_A    0.0000
     83 H          47.0350   67.2486    7.7153 H        11      M_A    0.0000
     84 H          45.9990   69.7855    7.4442 H        11      M_A    0.0000
     85 C          46.6183   68.6535    9.3090 C.3      12      M_A    0.0000
     86 C          46.7915   70.1940    9.2764 C.3      12      M_A    0.0000
     87 O          46.7693   70.7112    7.9522 O.3      12      M_A    0.0000
     88 H          45.8572   68.3778   10.0486 H        12      M_A    0.0000
     89 H          47.5674   68.2120    9.6385 H        12      M_A    0.0000
     90 H          47.7784   70.4274    9.6922 H        12      M_A    0.0000
     91 H          45.8144   70.8551    7.8100 H        12      M_A    0.0000
     92 C          45.7229   70.9914   10.0717 C.3      13      M_A    0.0000
     93 C          46.0737   71.2828   11.5536 C.3      13      M_A    0.0000
     94 O          45.0096   71.9259   12.2433 O.3      13      M_A    0.0000
     95 H          45.5131   71.9300    9.5451 H        13      M_A    0.0000
     96 H          44.8024   70.3942   10.0517 H        13      M_A    0.0000
     97 H          46.9238   71.9744   11.5653 H        13      M_A    0.0000
     98 H          44.4863   71.1645   12.5579 H        13      M_A    0.0000
     99 C          46.4455   70.0339   12.3977 C.3      14      M_A    0.0000
    100 C          45.5261   69.7528   13.6141 C.3      14      M_A    0.0000
    101 O          45.2456   70.9295   14.3613 O.3      14      M_A    0.0000
    102 H          46.4768   69.1561   11.7413 H        14      M_A    0.0000
    103 H          47.4640   70.1967   12.7723 H        14      M_A    0.0000
    104 H          46.0601   69.0702   14.2850 H        14      M_A    0.0000
    105 H          44.4602   71.2778   13.8982 H        14      M_A    0.0000
    106 C          44.1509   69.1223   13.2654 C.3      15      M_A    0.0000
    107 C          43.8975   67.7088   13.8502 C.3      15      M_A    0.0000
    108 O          44.2695   67.6170   15.2194 O.3      15      M_A    0.0000
    109 H          43.3544   69.8065   13.5813 H        15      M_A    0.0000
    110 H          44.1037   69.0507   12.1714 H        15      M_A    0.0000
    111 H          44.5303   67.0024   13.3010 H        15      M_A    0.0000
    112 H          43.4525   67.9061   15.6682 H        15      M_A    0.0000
    113 C          42.4269   67.2179   13.7664 C.3      16      M_A    0.0000
    114 C          42.1500   66.1176   12.7097 C.3      16      M_A    0.0000
    115 O          42.3362   64.8086   13.2328 O.3      16      M_A    0.0000
    116 H          42.1087   66.8737   14.7577 H        16      M_A    0.0000
    117 H          41.8150   68.0931   13.5137 H        16      M_A    0.0000
    118 H          42.8776   66.2425   11.8997 H        16      M_A    0.0000
    119 H          41.4555   64.6158   13.6068 H        16      M_A    0.0000
    120 C          40.7239   66.1409   12.0964 C.3      17      M_A    0.0000
    121 C          40.5829   65.4620   10.7095 C.3      17      M_A    0.0000
    122 O          40.5098   66.4083    9.6509 O.3      17      M_A    0.0000
    123 H          40.0223   65.6889   12.8076 H        17      M_A    0.0000
    124 H          40.4431   67.1961   11.9880 H        17      M_A    0.0000
    125 H          39.6382   64.9064   10.7048 H        17      M_A    0.0000
    126 H          41.4531   66.5482    9.4425 H        17      M_A    0.0000
    127 C          41.7297   64.4834   10.3383 C.3      18      M_A    0.0000
    128 C          41.5174   63.6704    9.0352 C.3      18      M_A    0.0000
    129 O          40.2877   62.9568    9.0391 O.3      18      M_A    0.0000
    130 H          42.6713   65.0424   10.2817 H        18      M_A    0.0000
    131 H          41.8219   63.7737   11.1702 H        18      M_A    0.0000
    132 H          42.3176   62.9241    8.9738 H        18      M_A    0.0000
    133 H          39.6701   63.6210    8.6786 H        18      M_A    0.0000
    134 H          41.5247   64.2597    8.1182 H        18      M_A    0.0000
    135 H          32.1714   56.6358    4.2221 H         0      M_A    0.0000
@<TRIPOS>BOND
     1     1     2      1
     2     1     4      1
     3     1     5      1
     4     1   135      1
     5     2     3      1
     6     2     6      1
     7     2     8      1
     8     3     7      1
     9     8     9      1
    10     8    11      1
    11     8    12      1
    12     9    10      1
    13     9    13      1
    14     9    15      1
    15    10    14      1
    16    15    16      1
    17    15    18      1
    18    15    19      1
    19    16    17      1
    20    16    20      1
    21    16    22      1
    22    17    21      1
    23    22    23      1
    24    22    25      1
    25    22    26      1
    26    23    24      1
    27    23    27      1
    28    23    29      1
    29    24    28      1
    30    29    30      1
    31    29    32      1
    32    29    33      1
    33    30    31      1
    34    30    34      1
    35    30    36      1
    36    31    35      1
    37    36    37      1
    38    36    39      1
    39    36    40      1
    40    37    38      1
    41    37    41      1
    42    37    43      1
    43    38    42      1
    44    43    44      1
    45    43    46      1
    46    43    47      1
    47    44    45      1
    48    44    48      1
    49    44    50      1
    50    45    49      1
    51    50    51      1
    52    50    53      1
    53    50    54      1
    54    51    52      1
    55    51    55      1
    56    51    57      1
    57    52    56      1
    58    57    58      1
    59    57    60      1
    60    57    61      1
    61    58    59      1
    62    58    62      1
    63    58    64      1
    64    59    63      1
    65    64    65      1
    66    64    67      1
    67    64    68      1
    68    65    66      1
    69    65    69      1
    70    65    71      1
    71    66    70      1
    72    71    72      1
    73    71    74      1
    74    71    75      1
    75    72    73      1
    76    72    76      1
    77    72    78      1
    78    73    77      1
    79    78    79      1
    80    78    81      1
    81    78    82      1
    82    79    80      1
    83    79    83      1
    84    79    85      1
    85    80    84      1
    86    85    86      1
    87    85    88      1
    88    85    89      1
    89    86    87      1
    90    86    90      1
    91    86    92      1
    92    87    91      1
    93    92    93      1
    94    92    95      1
    95    92    96      1
    96    93    94      1
    97    93    97      1
    98    93    99      1
    99    94    98      1
   100    99   100      1
   101    99   102      1
   102    99   103      1
   103   100   101      1
   104   100   104      1
   105   100   106      1
   106   101   105      1
   107   106   107      1
   108   106   109      1
   109   106   110      1
   110   107   108      1
   111   107   111      1
   112   107   113      1
   113   108   112      1
   114   113   114      1
   115   113   116      1
   116   113   117      1
   117   114   115      1
   118   114   118      1
   119   114   120      1
   120   115   119      1
   121   120   121      1
   122   120   123      1
   123   120   124      1
   124   121   122      1
   125   121   125      1
   126   121   127      1
   127   122   126      1
   128   127   128      1
   129   127   130      1
   130   127   131      1
   131   128   129      1
   132   128   132      1
   133   128   134      1
   134   129   133      1
