###
### Created by PolyChef-cpp17 on Tue Feb 11 14:14:38 2025
###

@<TRIPOS>MOLECULE
NO_INFO
10454 10453 1 0 0
SMALL
USER_CHARGES


@<TRIPOS>ATOM
      1 C          -0.7202    1.2287    0.6551 C.3       0        0    0.0000
      2 C          -0.3473    2.3280    1.6558 C.3       0        0    0.0000
      3 H          -0.4908    0.2423    1.0770 H         0        0    0.0000
      4 H          -0.1177    1.3294   -0.2562 H         0        0    0.0000
      5 H          -0.5275    3.3158    1.2139 H         0        0    0.0000
      6 H          -0.9859    2.2595    2.5452 H         0        0    0.0000
      7 C           1.1527    2.2405    2.1028 C.3       1        0    0.0000
      8 C           1.9100    1.1214    1.3796 C.3       1        0    0.0000
      9 H           1.6358    3.2066    1.9110 H         1        0    0.0000
     10 H           1.1896    2.0796    3.1874 H         1        0    0.0000
     11 H           1.4222    0.1564    1.5648 H         1        0    0.0000
     12 H           1.8800    1.2866    0.2954 H         1        0    0.0000
     13 C           3.4070    1.0265    1.8349 C.3       2        0    0.0000
     14 C           4.1626   -0.0968    1.1164 C.3       2        0    0.0000
     15 H           3.8961    1.9900    1.6453 H         2        0    0.0000
     16 H           3.4371    0.8660    2.9198 H         2        0    0.0000
     17 H           3.6863   -1.0631    1.3237 H         2        0    0.0000
     18 H           4.1141    0.0518    0.0306 H         2        0    0.0000
     19 C           5.6674   -0.1721    1.5493 C.3       3        0    0.0000
     20 C           6.4600   -1.1893    0.7209 C.3       3        0    0.0000
     21 H           6.1145    0.8247    1.4490 H         3        0    0.0000
     22 H           5.7166   -0.4337    2.6136 H         3        0    0.0000
     23 H           6.0003   -2.1820    0.8041 H         3        0    0.0000
     24 H           6.4287   -0.9157   -0.3410 H         3        0    0.0000
     25 C           7.9576   -1.2865    1.1738 C.3       4        0    0.0000
     26 C           8.9294   -0.8993    0.0537 C.3       4        0    0.0000
     27 H           8.1070   -0.6346    2.0435 H         4        0    0.0000
     28 H           8.1597   -2.3111    1.5096 H         4        0    0.0000
     29 H           8.7440   -1.5154   -0.8349 H         4        0    0.0000
     30 H           8.7627    0.1430   -0.2454 H         4        0    0.0000
     31 C          10.4278   -1.0685    0.4822 C.3       5        0    0.0000
     32 C          10.9808    0.1854    1.1685 C.3       5        0    0.0000
     33 H          10.5079   -1.9316    1.1547 H         5        0    0.0000
     34 H          11.0253   -1.3052   -0.4068 H         5        0    0.0000
     35 H          11.9943    0.3968    0.8056 H         5        0    0.0000
     36 H          10.3661    1.0570    0.9115 H         5        0    0.0000
     37 C          11.0229    0.0392    2.7287 C.3       6        0    0.0000
     38 C          12.4561    0.0174    3.2716 C.3       6        0    0.0000
     39 H          10.4635    0.8696    3.1769 H         6        0    0.0000
     40 H          10.4994   -0.8824    3.0117 H         6        0    0.0000
     41 H          13.1424    0.4606    2.5395 H         6        0    0.0000
     42 H          12.5241    0.6306    4.1787 H         6        0    0.0000
     43 C          12.9427   -1.4349    3.6058 C.3       7        0    0.0000
     44 C          14.4467   -1.4913    3.8951 C.3       7        0    0.0000
     45 H          12.3791   -1.8064    4.4705 H         7        0    0.0000
     46 H          12.6968   -2.0929    2.7631 H         7        0    0.0000
     47 H          14.9129   -2.2927    3.3085 H         7        0    0.0000
     48 H          14.9250   -0.5542    3.5842 H         7        0    0.0000
     49 C          14.7509   -1.7342    5.4137 C.3       8        0    0.0000
     50 C          16.2465   -1.6265    5.7309 C.3       8        0    0.0000
     51 H          14.1868   -1.0050    6.0083 H         8        0    0.0000
     52 H          14.3772   -2.7265    5.6948 H         8        0    0.0000
     53 H          16.5440   -2.4286    6.4177 H         8        0    0.0000
     54 H          16.8359   -1.7609    4.8154 H         8        0    0.0000
     55 C          16.6196   -0.2464    6.3740 C.3       9        0    0.0000
     56 C          18.1349   -0.0572    6.5049 C.3       9        0    0.0000
     57 H          16.1918    0.5566    5.7609 H         9        0    0.0000
     58 H          16.1451   -0.1762    7.3607 H         9        0    0.0000
     59 H          18.5576    0.2675    5.5460 H         9        0    0.0000
     60 H          18.3536    0.7361    7.2304 H         9        0    0.0000
     61 C          18.8606   -1.3707    6.9582 C.3      10        0    0.0000
     62 C          20.3209   -1.4169    6.4950 C.3      10        0    0.0000
     63 H          18.8103   -1.4431    8.0517 H        10        0    0.0000
     64 H          18.3122   -2.2333    6.5598 H        10        0    0.0000
     65 H          20.5666   -2.4201    6.1251 H        10        0    0.0000
     66 H          20.4715   -0.7262    5.6562 H        10        0    0.0000
     67 C          21.3205   -1.0429    7.6433 C.3      11        0    0.0000
     68 C          22.7809   -1.2755    7.2407 C.3      11        0    0.0000
     69 H          21.1684    0.0088    7.9159 H        11        0    0.0000
     70 H          21.0761   -1.6373    8.5324 H        11        0    0.0000
     71 H          22.8411   -2.0690    6.4855 H        11        0    0.0000
     72 H          23.1928   -0.3695    6.7792 H        11        0    0.0000
     73 C          23.6781   -1.6725    8.4634 C.3      12        0    0.0000
     74 C          25.1693   -1.6857    8.1095 C.3      12        0    0.0000
     75 H          23.4921   -0.9667    9.2824 H        12        0    0.0000
     76 H          23.3681   -2.6614    8.8232 H        12        0    0.0000
     77 H          25.3764   -2.4808    7.3825 H        12        0    0.0000
     78 H          25.4506   -0.7398    7.6304 H        12        0    0.0000
     79 C          26.0769   -1.9037    9.3689 C.3      13        0    0.0000
     80 C          27.5674   -1.9315    9.0130 C.3      13        0    0.0000
     81 H          25.8776   -1.1025   10.0914 H        13        0    0.0000
     82 H          25.7884   -2.8444    9.8542 H        13        0    0.0000
     83 H          27.7037   -2.3143    7.9940 H        13        0    0.0000
     84 H          27.9759   -0.9134    9.0244 H        13        0    0.0000
     85 C          28.3979   -2.8202   10.0020 C.3      14        0    0.0000
     86 C          29.9073   -2.5995    9.8535 C.3      14        0    0.0000
     87 H          28.0839   -2.5948   11.0287 H        14        0    0.0000
     88 H          28.1523   -3.8741    9.8216 H        14        0    0.0000
     89 H          30.4335   -3.5613    9.8904 H        14        0    0.0000
     90 H          30.1282   -2.1568    8.8744 H        14        0    0.0000
     91 C          30.4839   -1.6648   10.9722 C.3      15        0    0.0000
     92 C          32.0028   -1.8055   11.1208 C.3      15        0    0.0000
     93 H          30.2238   -0.6260   10.7339 H        15        0    0.0000
     94 H          29.9893   -1.9035   11.9220 H        15        0    0.0000
     95 H          32.2683   -1.9196   12.1791 H        15        0    0.0000
     96 H          32.3484   -2.7126   10.6097 H        15        0    0.0000
     97 C          32.7736   -0.5717   10.5367 C.3      16        0    0.0000
     98 C          34.2876   -0.6786   10.7501 C.3      16        0    0.0000
     99 H          32.5495   -0.4894    9.4659 H        16        0    0.0000
    100 H          32.3905    0.3409   11.0098 H        16        0    0.0000
    101 H          34.7000   -1.4798   10.1244 H        16        0    0.0000
    102 H          34.7783    0.2509   10.4356 H        16        0    0.0000
    103 C          34.6580   -0.9644   12.2462 C.3      17        0    0.0000
    104 C          36.0131   -1.6668   12.3852 C.3      17        0    0.0000
    105 H          34.6684   -0.0148   12.7955 H        17        0    0.0000
    106 H          33.8679   -1.5792   12.6949 H        17        0    0.0000
    107 H          35.9486   -2.4634   13.1367 H        17        0    0.0000
    108 H          36.2860   -2.1485   11.4380 H        17        0    0.0000
    109 C          37.1565   -0.6760   12.7959 C.3      18        0    0.0000
    110 C          38.4421   -1.4073   13.1978 C.3      18        0    0.0000
    111 H          37.3558    0.0015   11.9564 H        18        0    0.0000
    112 H          36.8028   -0.0528   13.6266 H        18        0    0.0000
    113 H          38.8128   -1.0182   14.1542 H        18        0    0.0000
    114 H          38.2362   -2.4740   13.3503 H        18        0    0.0000
    115 C          39.5712   -1.2595   12.1205 C.3      19        0    0.0000
    116 C          40.9230   -1.7807   12.6205 C.3      19        0    0.0000
    117 H          39.2701   -1.8023   11.2159 H        19        0    0.0000
    118 H          39.6561   -0.2023   11.8399 H        19        0    0.0000
    119 H          40.8675   -2.8621   12.7963 H        19        0    0.0000
    120 H          41.6928   -1.6250   11.8546 H        19        0    0.0000
    121 C          41.3782   -1.0762   13.9449 C.3      20        0    0.0000
    122 C          42.5717   -1.7822   14.5978 C.3      20        0    0.0000
    123 H          41.6347   -0.0334   13.7206 H        20        0    0.0000
    124 H          40.5304   -1.0495   14.6407 H        20        0    0.0000
    125 H          42.4251   -1.8430   15.6833 H        20        0    0.0000
    126 H          42.6449   -2.8138   14.2316 H        20        0    0.0000
    127 C          43.9263   -1.0471   14.3112 C.3      21        0    0.0000
    128 C          45.0998   -1.6743   15.0718 C.3      21        0    0.0000
    129 H          44.1210   -1.0725   13.2319 H        21        0    0.0000
    130 H          43.8206    0.0093   14.5875 H        21        0    0.0000
    131 H          45.7127   -0.8892   15.5317 H        21        0    0.0000
    132 H          44.7253   -2.3016   15.8903 H        21        0    0.0000
    133 C          46.0114   -2.5475   14.1424 C.3      22        0    0.0000
    134 C          47.3229   -2.9491   14.8263 C.3      22        0    0.0000
    135 H          45.4544   -3.4435   13.8415 H        22        0    0.0000
    136 H          46.2227   -1.9849   13.2246 H        22        0    0.0000
    137 H          47.1152   -3.5948   15.6885 H        22        0    0.0000
    138 H          47.9430   -3.5347   14.1363 H        22        0    0.0000
    139 C          48.1444   -1.7056   15.3125 C.3      23        0    0.0000
    140 C          49.2293   -2.0862   16.3259 C.3      23        0    0.0000
    141 H          48.5983   -1.2187   14.4405 H        23        0    0.0000
    142 H          47.4541   -0.9773   15.7561 H        23        0    0.0000
    143 H          49.1831   -1.4184   17.1951 H        23        0    0.0000
    144 H          49.0547   -3.1027   16.6999 H        23        0    0.0000
    145 C          50.6690   -2.0150   15.7098 C.3      24        0    0.0000
    146 C          51.7631   -2.1975   16.7675 C.3      24        0    0.0000
    147 H          50.7612   -2.7872   14.9361 H        24        0    0.0000
    148 H          50.7905   -1.0481   15.2059 H        24        0    0.0000
    149 H          52.5356   -1.4280   16.6464 H        24        0    0.0000
    150 H          51.3414   -2.0652   17.7716 H        24        0    0.0000
    151 C          52.4392   -3.6095   16.6854 C.3      25        0    0.0000
    152 C          53.6422   -3.7331   17.6269 C.3      25        0    0.0000
    153 H          51.6912   -4.3743   16.9283 H        25        0    0.0000
    154 H          52.7517   -3.7921   15.6498 H        25        0    0.0000
    155 H          53.3087   -3.6891   18.6712 H        25        0    0.0000
    156 H          54.1270   -4.7079   17.4918 H        25        0    0.0000
    157 C          54.7027   -2.6038   17.3873 C.3      26        0    0.0000
    158 C          55.8675   -2.6805   18.3805 C.3      26        0    0.0000
    159 H          55.0786   -2.6840   16.3598 H        26        0    0.0000
    160 H          54.2052   -1.6291   17.4655 H        26        0    0.0000
    161 H          56.6924   -2.0409   18.0429 H        26        0    0.0000
    162 H          55.5528   -2.2983   19.3595 H        26        0    0.0000
    163 C          56.4021   -4.1435   18.5573 C.3      27        0    0.0000
    164 C          57.5601   -4.2217   19.5583 C.3      27        0    0.0000
    165 H          55.5754   -4.7846   18.8876 H        27        0    0.0000
    166 H          56.7238   -4.5230   17.5795 H        27        0    0.0000
    167 H          57.4360   -3.4595   20.3374 H        27        0    0.0000
    168 H          57.5538   -5.1945   20.0654 H        27        0    0.0000
    169 C          58.9543   -4.0193   18.8708 C.3      28        0    0.0000
    170 C          60.0978   -3.9407   19.8884 C.3      28        0    0.0000
    171 H          59.1281   -4.8477   18.1729 H        28        0    0.0000
    172 H          58.9223   -3.1022   18.2695 H        28        0    0.0000
    173 H          59.7868   -4.3912   20.8392 H        28        0    0.0000
    174 H          60.9587   -4.5198   19.5322 H        28        0    0.0000
    175 C          60.5562   -2.4654   20.1543 C.3      29        0    0.0000
    176 C          61.9696   -2.3934   20.7425 C.3      29        0    0.0000
    177 H          60.5122   -1.9061   19.2115 H        29        0    0.0000
    178 H          59.8403   -1.9901   20.8362 H        29        0    0.0000
    179 H          62.6589   -2.9986   20.1406 H        29        0    0.0000
    180 H          62.3408   -1.3618   20.7045 H        29        0    0.0000
    181 C          62.0216   -2.8947   22.2269 C.3      30        0    0.0000
    182 C          63.4293   -3.3367   22.6419 C.3      30        0    0.0000
    183 H          61.6709   -2.0897   22.8845 H        30        0    0.0000
    184 H          61.3163   -3.7268   22.3440 H        30        0    0.0000
    185 H          64.1605   -3.0202   21.8877 H        30        0    0.0000
    186 H          63.7149   -2.8487   23.5819 H        30        0    0.0000
    187 C          63.5340   -4.8898   22.8266 C.3      31        0    0.0000
    188 C          64.9443   -5.3328   23.2317 C.3      31        0    0.0000
    189 H          62.8080   -5.2054   23.5861 H        31        0    0.0000
    190 H          63.2412   -5.3781   21.8889 H        31        0    0.0000
    191 H          65.1485   -5.0366   24.2680 H        31        0    0.0000
    192 H          65.0198   -6.4266   23.1960 H        31        0    0.0000
    193 C          66.0490   -4.7195   22.3038 C.3      32        0    0.0000
    194 C          67.4358   -4.7462   22.9560 C.3      32        0    0.0000
    195 H          66.0668   -5.2769   21.3591 H        32        0    0.0000
    196 H          65.7698   -3.6880   22.0558 H        32        0    0.0000
    197 H          67.3987   -5.3109   23.8958 H        32        0    0.0000
    198 H          68.1482   -5.2666   22.3038 H        32        0    0.0000
    199 C          67.9807   -3.3066   23.2526 C.3      33        0    0.0000
    200 C          69.4607   -3.3163   23.6506 C.3      33        0    0.0000
    201 H          67.8347   -2.6828   22.3620 H        33        0    0.0000
    202 H          67.3788   -2.8587   24.0530 H        33        0    0.0000
    203 H          69.9404   -4.2358   23.2929 H        33        0    0.0000
    204 H          69.9848   -2.4804   23.1707 H        33        0    0.0000
    205 C          69.6594   -3.2134   25.2021 C.3      34        0    0.0000
    206 C          71.0158   -3.7672   25.6521 C.3      34        0    0.0000
    207 H          69.5640   -2.1624   25.5019 H        34        0    0.0000
    208 H          68.8471   -3.7577   25.6995 H        34        0    0.0000
    209 H          71.2774   -3.3658   26.6390 H        34        0    0.0000
    210 H          70.9599   -4.8574   25.7601 H        34        0    0.0000
    211 C          72.1643   -3.4175   24.6439 C.3      35        0    0.0000
    212 C          73.4814   -4.1164   24.9987 C.3      35        0    0.0000
    213 H          71.8470   -3.7035   23.6334 H        35        0    0.0000
    214 H          72.3065   -2.3298   24.6334 H        35        0    0.0000
    215 H          73.2781   -5.0559   25.5276 H        35        0    0.0000
    216 H          74.0250   -4.3814   24.0834 H        35        0    0.0000
    217 C          74.4060   -3.2220   25.8946 C.3      36        0    0.0000
    218 C          75.6495   -3.9753   26.3796 C.3      36        0    0.0000
    219 H          74.7032   -2.3352   25.3212 H        36        0    0.0000
    220 H          73.8255   -2.8622   26.7531 H        36        0    0.0000
    221 H          75.4074   -4.5656   27.2721 H        36        0    0.0000
    222 H          75.9819   -4.6858   25.6126 H        36        0    0.0000
    223 C          76.8351   -3.0078   26.7199 C.3      37        0    0.0000
    224 C          78.1039   -3.7649   27.1274 C.3      37        0    0.0000
    225 H          77.0381   -2.3763   25.8461 H        37        0    0.0000
    226 H          76.5220   -2.3357   27.5285 H        37        0    0.0000
    227 H          78.3764   -4.4886   26.3493 H        37        0    0.0000
    228 H          78.9457   -3.0671   27.2174 H        37        0    0.0000
    229 C          77.9309   -4.5258   28.4870 C.3      38        0    0.0000
    230 C          79.2275   -5.2047   28.9418 C.3      38        0    0.0000
    231 H          77.5913   -3.8142   29.2498 H        38        0    0.0000
    232 H          77.1345   -5.2721   28.3757 H        38        0    0.0000
    233 H          79.0860   -5.6633   29.9283 H        38        0    0.0000
    234 H          79.4893   -6.0163   28.2517 H        38        0    0.0000
    235 C          80.4285   -4.2001   29.0192 C.3      39        0    0.0000
    236 C          81.7817   -4.9167   29.0869 C.3      39        0    0.0000
    237 H          80.3953   -3.5411   28.1428 H        39        0    0.0000
    238 H          80.2976   -3.5596   29.9002 H        39        0    0.0000
    239 H          81.7838   -5.6392   29.9125 H        39        0    0.0000
    240 H          81.9505   -5.4895   28.1666 H        39        0    0.0000
    241 C          82.9735   -3.9181   29.2864 C.3      40        0    0.0000
    242 C          84.2865   -4.6383   29.6120 C.3      40        0    0.0000
    243 H          83.0891   -3.3190   28.3746 H        40        0    0.0000
    244 H          82.7179   -3.2190   30.0923 H        40        0    0.0000
    245 H          84.1817   -5.2089   30.5431 H        40        0    0.0000
    246 H          84.5236   -5.3631   28.8234 H        40        0    0.0000
    247 C          85.4886   -3.6433   29.7618 C.3      41        0    0.0000
    248 C          86.7256   -4.3141   30.3694 C.3      41        0    0.0000
    249 H          85.7312   -3.2307   28.7747 H        41        0    0.0000
    250 H          85.1730   -2.7991   30.3873 H        41        0    0.0000
    251 H          87.6307   -3.9734   29.8516 H        41        0    0.0000
    252 H          86.8346   -4.0202   31.4207 H        41        0    0.0000
    253 C          86.6544   -5.8779   30.2867 C.3      42        0    0.0000
    254 C          87.8590   -6.5503   30.9543 C.3      42        0    0.0000
    255 H          85.7246   -6.2151   30.7612 H        42        0    0.0000
    256 H          86.5952   -6.1738   29.2319 H        42        0    0.0000
    257 H          88.1477   -5.9955   31.8557 H        42        0    0.0000
    258 H          87.5917   -7.5632   31.2800 H        42        0    0.0000
    259 C          89.0970   -6.6376   29.9966 C.3      43        0    0.0000
    260 C          90.4136   -6.3334   30.7199 C.3      43        0    0.0000
    261 H          89.1331   -7.6417   29.5560 H        43        0    0.0000
    262 H          88.9525   -5.9346   29.1669 H        43        0    0.0000
    263 H          91.2306   -6.2458   29.9930 H        43        0    0.0000
    264 H          90.3452   -5.3672   31.2349 H        43        0    0.0000
    265 C          90.7854   -7.4391   31.7671 C.3      44        0    0.0000
    266 C          91.8659   -6.9703   32.7478 C.3      44        0    0.0000
    267 H          89.8792   -7.7263   32.3148 H        44        0    0.0000
    268 H          91.1263   -8.3335   31.2311 H        44        0    0.0000
    269 H          92.8006   -6.7695   32.2098 H        44        0    0.0000
    270 H          91.5636   -6.0261   33.2175 H        44        0    0.0000
    271 C          92.1466   -8.0265   33.8717 C.3      45        0    0.0000
    272 C          93.3759   -7.6664   34.7133 C.3      45        0    0.0000
    273 H          91.2605   -8.1035   34.5140 H        45        0    0.0000
    274 H          92.2846   -9.0102   33.4061 H        45        0    0.0000
    275 H          93.1925   -6.7386   35.2693 H        45        0    0.0000
    276 H          93.5636   -8.4487   35.4591 H        45        0    0.0000
    277 C          94.6631   -7.4843   33.8371 C.3      46        0    0.0000
    278 C          95.8669   -7.0183   34.6633 C.3      46        0    0.0000
    279 H          94.8920   -8.4365   33.3428 H        46        0    0.0000
    280 H          94.4497   -6.7597   33.0415 H        46        0    0.0000
    281 H          95.7290   -5.9752   34.9738 H        46        0    0.0000
    282 H          95.9454   -7.6127   35.5820 H        46        0    0.0000
    283 C          97.2135   -7.1352   33.8692 C.3      47        0    0.0000
    284 C          98.3714   -6.4277   34.5818 C.3      47        0    0.0000
    285 H          97.4505   -8.1972   33.7295 H        47        0    0.0000
    286 H          97.0717   -6.7097   32.8681 H        47        0    0.0000
    287 H          98.9773   -5.8726   33.8551 H        47        0    0.0000
    288 H          97.9805   -5.6907   35.2943 H        47        0    0.0000
    289 C          99.2981   -7.4315   35.3505 C.3      48        0    0.0000
    290 C         100.3649   -6.7145   36.1853 C.3      48        0    0.0000
    291 H          98.6761   -8.0628   35.9971 H        48        0    0.0000
    292 H          99.7758   -8.0996   34.6232 H        48        0    0.0000
    293 H         100.0569   -5.6799   36.3809 H        48        0    0.0000
    294 H         100.4687   -7.2024   37.1624 H        48        0    0.0000
    295 C         101.7632   -6.7000   35.4767 C.3      49        0    0.0000
    296 C         102.9211   -6.6267   36.4781 C.3      49        0    0.0000
    297 H         101.8562   -7.6022   34.8595 H        49        0    0.0000
    298 H         101.8036   -5.8441   34.7916 H        49        0    0.0000
    299 H         103.1180   -5.5822   36.7497 H        49        0    0.0000
    300 H         102.6504   -7.1476   37.4049 H        49        0    0.0000
    301 C         104.2387   -7.2581   35.9100 C.3      50        0    0.0000
    302 C         105.4215   -7.0969   36.8714 C.3      50        0    0.0000
    303 H         104.0620   -8.3214   35.7061 H        50        0    0.0000
    304 H         104.4700   -6.7867   34.9468 H        50        0    0.0000
    305 H         105.9021   -8.0681   37.0426 H        50        0    0.0000
    306 H         106.1818   -6.4433   36.4261 H        50        0    0.0000
    307 C         104.9866   -6.4976   38.2531 C.3      51        0    0.0000
    308 C         106.1875   -6.1607   39.1439 C.3      51        0    0.0000
    309 H         104.3861   -5.5970   38.0747 H        51        0    0.0000
    310 H         104.3321   -7.2173   38.7604 H        51        0    0.0000
    311 H         106.6793   -5.2488   38.7832 H        51        0    0.0000
    312 H         105.8504   -5.9531   40.1670 H        51        0    0.0000
    313 C         107.2411   -7.3208   39.1846 C.3      52        0    0.0000
    314 C         108.5965   -6.8556   39.7282 C.3      52        0    0.0000
    315 H         106.8465   -8.1352   39.8047 H        52        0    0.0000
    316 H         107.3608   -7.7254   38.1719 H        52        0    0.0000
    317 H         108.9203   -5.9477   39.2045 H        52        0    0.0000
    318 H         108.5057   -6.5918   40.7892 H        52        0    0.0000
    319 C         109.7066   -7.9515   39.5732 C.3      53        0    0.0000
    320 C         111.1171   -7.3521   39.5629 C.3      53        0    0.0000
    321 H         109.6098   -8.6716   40.3952 H        53        0    0.0000
    322 H         109.5273   -8.5075   38.6446 H        53        0    0.0000
    323 H         111.1985   -6.5954   38.7728 H        53        0    0.0000
    324 H         111.3147   -6.8389   40.5122 H        53        0    0.0000
    325 C         112.2232   -8.4398   39.3367 C.3      54        0    0.0000
    326 C         113.4383   -8.2305   40.2471 C.3      54        0    0.0000
    327 H         111.7865   -9.4304   39.5141 H        54        0    0.0000
    328 H         112.5328   -8.4158   38.2846 H        54        0    0.0000
    329 H         113.1417   -7.6835   41.1506 H        54        0    0.0000
    330 H         113.8303   -9.1996   40.5799 H        54        0    0.0000
    331 C         114.5873   -7.4394   39.5318 C.3      55        0    0.0000
    332 C         115.4296   -6.6213   40.5168 C.3      55        0    0.0000
    333 H         115.2245   -8.1515   38.9929 H        55        0    0.0000
    334 H         114.1444   -6.7786   38.7763 H        55        0    0.0000
    335 H         115.6726   -5.6437   40.0823 H        55        0    0.0000
    336 H         114.8554   -6.4258   41.4309 H        55        0    0.0000
    337 C         116.7637   -7.3479   40.9038 C.3      56        0    0.0000
    338 C         117.2916   -6.9030   42.2722 C.3      56        0    0.0000
    339 H         116.5899   -8.4311   40.9017 H        56        0    0.0000
    340 H         117.5133   -7.1476   40.1282 H        56        0    0.0000
    341 H         117.0420   -5.8492   42.4471 H        56        0    0.0000
    342 H         116.8041   -7.4787   43.0687 H        56        0    0.0000
    343 C         118.8439   -7.0821   42.3969 C.3      57        0    0.0000
    344 C         119.2305   -8.0091   43.5546 C.3      57        0    0.0000
    345 H         119.2312   -7.4802   41.4508 H        57        0    0.0000
    346 H         119.3037   -6.0956   42.5353 H        57        0    0.0000
    347 H         119.3500   -7.4284   44.4777 H        57        0    0.0000
    348 H         118.4282   -8.7340   43.7401 H        57        0    0.0000
    349 C         120.5608   -8.7889   43.2724 C.3      58        0    0.0000
    350 C         121.7610   -8.1724   43.9994 C.3      58        0    0.0000
    351 H         120.4304   -9.8337   43.5807 H        58        0    0.0000
    352 H         120.7415   -8.8000   42.1904 H        58        0    0.0000
    353 H         121.6189   -7.0901   44.1091 H        58        0    0.0000
    354 H         121.8388   -8.5842   45.0133 H        58        0    0.0000
    355 C         123.1101   -8.4310   43.2441 C.3      59        0    0.0000
    356 C         124.3153   -8.4297   44.1909 C.3      59        0    0.0000
    357 H         123.0437   -9.3930   42.7210 H        59        0    0.0000
    358 H         123.2367   -7.6611   42.4729 H        59        0    0.0000
    359 H         124.0809   -8.9988   45.0990 H        59        0    0.0000
    360 H         125.1674   -8.9315   43.7158 H        59        0    0.0000
    361 C         124.7474   -6.9796   44.6007 C.3      60        0    0.0000
    362 C         126.0913   -6.9602   45.3372 C.3      60        0    0.0000
    363 H         124.8043   -6.3591   43.6977 H        60        0    0.0000
    364 H         123.9650   -6.5432   45.2340 H        60        0    0.0000
    365 H         126.9095   -7.1527   44.6322 H        60        0    0.0000
    366 H         126.2715   -5.9662   45.7651 H        60        0    0.0000
    367 C         126.1542   -8.0241   46.4868 C.3      61        0    0.0000
    368 C         127.5755   -8.5506   46.7139 C.3      61        0    0.0000
    369 H         125.7688   -7.5716   47.4089 H        61        0    0.0000
    370 H         125.4810   -8.8539   46.2379 H        61        0    0.0000
    371 H         127.6723   -8.9448   47.7332 H        61        0    0.0000
    372 H         127.7809   -9.3854   46.0325 H        61        0    0.0000
    373 C         128.6618   -7.4415   46.4959 C.3      62        0    0.0000
    374 C         130.0866   -7.9882   46.6371 C.3      62        0    0.0000
    375 H         128.5242   -7.0027   45.4999 H        62        0    0.0000
    376 H         128.4946   -6.6354   47.2211 H        62        0    0.0000
    377 H         130.0867   -9.0771   46.5032 H        62        0    0.0000
    378 H         130.7282   -7.5739   45.8496 H        62        0    0.0000
    379 C         130.7170   -7.6506   48.0321 C.3      63        0    0.0000
    380 C         132.2376   -7.8419   48.0440 C.3      63        0    0.0000
    381 H         130.4661   -6.6148   48.2922 H        63        0    0.0000
    382 H         130.2517   -8.2882   48.7940 H        63        0    0.0000
    383 H         132.6134   -7.9325   47.0173 H        63        0    0.0000
    384 H         132.7241   -6.9611   48.4810 H        63        0    0.0000
    385 C         132.6703   -9.1123   48.8543 C.3      64        0    0.0000
    386 C         134.1938   -9.2530   48.9439 C.3      64        0    0.0000
    387 H         132.2381   -9.0537   49.8610 H        64        0    0.0000
    388 H         132.2379  -10.0004   48.3770 H        64        0    0.0000
    389 H         134.4562  -10.0890   49.6041 H        64        0    0.0000
    390 H         134.6085   -9.4895   47.9562 H        64        0    0.0000
    391 C         134.8802   -7.9501   49.4814 C.3      65        0    0.0000
    392 C         136.3876   -7.9312   49.2046 C.3      65        0    0.0000
    393 H         134.4012   -7.0801   49.0154 H        65        0    0.0000
    394 H         134.6948   -7.8719   50.5598 H        65        0    0.0000
    395 H         136.6299   -8.6287   48.3932 H        65        0    0.0000
    396 H         136.6953   -6.9343   48.8654 H        65        0    0.0000
    397 C         137.2289   -8.3163   50.4700 C.3      66        0    0.0000
    398 C         138.6918   -8.6169   50.1256 C.3      66        0    0.0000
    399 H         137.1742   -7.4944   51.1946 H        66        0    0.0000
    400 H         136.7681   -9.1894   50.9487 H        66        0    0.0000
    401 H         138.8155   -9.6853   49.9095 H        66        0    0.0000
    402 H         138.9830   -8.0759   49.2167 H        66        0    0.0000
    403 C         139.6689   -8.2194   51.2852 C.3      67        0    0.0000
    404 C         141.1371   -8.4559   50.9144 C.3      67        0    0.0000
    405 H         139.5096   -7.1632   51.5355 H        67        0    0.0000
    406 H         139.4091   -8.7979   52.1804 H        67        0    0.0000
    407 H         141.2052   -9.1727   50.0866 H        67        0    0.0000
    408 H         141.5909   -7.5219   50.5606 H        67        0    0.0000
    409 C         141.9751   -8.9987   52.1230 C.3      68        0    0.0000
    410 C         143.4774   -9.0295   51.8209 C.3      68        0    0.0000
    411 H         141.7805   -8.3684   52.9996 H        68        0    0.0000
    412 H         141.6212  -10.0062   52.3746 H        68        0    0.0000
    413 H         143.7441   -9.9765   51.3355 H        68        0    0.0000
    414 H         143.7357   -8.2302   51.1154 H        68        0    0.0000
    415 C         144.3470   -8.8623   53.1145 C.3      69        0    0.0000
    416 C         145.8478   -8.8312   52.8054 C.3      69        0    0.0000
    417 H         144.0486   -7.9377   53.6240 H        69        0    0.0000
    418 H         144.1214   -9.6874   53.8014 H        69        0    0.0000
    419 H         146.0097   -8.5712   51.7519 H        69        0    0.0000
    420 H         146.3386   -8.0517   53.4013 H        69        0    0.0000
    421 C         146.5435  -10.2050   53.0993 C.3      70        0    0.0000
    422 C         148.0267  -10.0419   53.4493 C.3      70        0    0.0000
    423 H         146.0148  -10.6999   53.9234 H        70        0    0.0000
    424 H         146.4333  -10.8523   52.2205 H        70        0    0.0000
    425 H         148.6266   -9.9947   52.5320 H        70        0    0.0000
    426 H         148.1862   -9.0945   53.9791 H        70        0    0.0000
    427 C         148.5592  -11.2157   54.3416 C.3      71        0    0.0000
    428 C         149.9069  -10.8853   54.9924 C.3      71        0    0.0000
    429 H         147.8130  -11.4391   55.1142 H        71        0    0.0000
    430 H         148.6512  -12.1167   53.7225 H        71        0    0.0000
    431 H         149.7999  -10.0230   55.6621 H        71        0    0.0000
    432 H         150.2413  -11.7262   55.6125 H        71        0    0.0000
    433 C         151.0166  -10.5668   53.9319 C.3      72        0    0.0000
    434 C         152.3827  -10.3133   54.5788 C.3      72        0    0.0000
    435 H         151.0837  -11.4053   53.2276 H        72        0    0.0000
    436 H         150.7077   -9.6901   53.3493 H        72        0    0.0000
    437 H         152.4458   -9.2759   54.9299 H        72        0    0.0000
    438 H         152.5052  -10.9527   55.4618 H        72        0    0.0000
    439 C         153.5681  -10.5850   53.5897 C.3      73        0    0.0000
    440 C         154.9323  -10.5147   54.2847 C.3      73        0    0.0000
    441 H         153.4287  -11.5731   53.1337 H        73        0    0.0000
    442 H         153.5232   -9.8525   52.7742 H        73        0    0.0000
    443 H         155.3332  -11.5256   54.4297 H        73        0    0.0000
    444 H         155.6501   -9.9790   53.6512 H        73        0    0.0000
    445 C         154.8536   -9.7979   55.6767 C.3      74        0    0.0000
    446 C         156.2239   -9.6955   56.3555 C.3      74        0    0.0000
    447 H         154.4281   -8.7967   55.5353 H        74        0    0.0000
    448 H         154.1558  -10.3490   56.3192 H        74        0    0.0000
    449 H         157.0213   -9.8570   55.6196 H        74        0    0.0000
    450 H         156.3686   -8.6862   56.7604 H        74        0    0.0000
    451 C         156.3905  -10.7347   57.5173 C.3      75        0    0.0000
    452 C         157.8602  -11.0812   57.7803 C.3      75        0    0.0000
    453 H         155.9321  -10.3255   58.4262 H        75        0    0.0000
    454 H         155.8297  -11.6425   57.2629 H        75        0    0.0000
    455 H         157.9958  -11.3739   58.8289 H        75        0    0.0000
    456 H         158.1580  -11.9439   57.1715 H        75        0    0.0000
    457 C         158.8193   -9.8828   57.4620 C.3      76        0    0.0000
    458 C         160.2966  -10.2769   57.5691 C.3      76        0    0.0000
    459 H         158.6008   -9.5135   56.4523 H        76        0    0.0000
    460 H         158.5985   -9.0600   58.1531 H        76        0    0.0000
    461 H         160.3929  -11.3692   57.6047 H        76        0    0.0000
    462 H         160.8409   -9.9416   56.6776 H        76        0    0.0000
    463 C         160.9835   -9.6674   58.8395 C.3      77        0    0.0000
    464 C         162.4953   -9.9183   58.8592 C.3      77        0    0.0000
    465 H         160.7806   -8.5897   58.8685 H        77        0    0.0000
    466 H         160.5188  -10.0996   59.7344 H        77        0    0.0000
    467 H         162.8525  -10.1433   57.8466 H        77        0    0.0000
    468 H         163.0226   -9.0133   59.1854 H        77        0    0.0000
    469 C         162.8888  -11.1022   59.8084 C.3      78        0    0.0000
    470 C         164.4075  -11.2591   59.9426 C.3      78        0    0.0000
    471 H         162.4399  -10.9291   60.7944 H        78        0    0.0000
    472 H         162.4478  -12.0286   59.4198 H        78        0    0.0000
    473 H         164.6415  -12.0445   60.6719 H        78        0    0.0000
    474 H         164.8385  -11.5790   58.9858 H        78        0    0.0000
    475 C         165.1048   -9.9288   60.3913 C.3      79        0    0.0000
    476 C         166.5822   -9.8821   59.9860 C.3      79        0    0.0000
    477 H         164.5666   -9.0810   59.9497 H        79        0    0.0000
    478 H         165.0101   -9.8296   61.4798 H        79        0    0.0000
    479 H         166.7398  -10.4659   59.0707 H        79        0    0.0000
    480 H         166.8768   -8.8506   59.7563 H        79        0    0.0000
    481 C         167.5242  -10.4385   61.1088 C.3      80        0    0.0000
    482 C         168.9819  -10.5398   60.6465 C.3      80        0    0.0000
    483 H         167.4525   -9.7845   61.9867 H        80        0    0.0000
    484 H         167.1588  -11.4249   61.4202 H        80        0    0.0000
    485 H         169.1178  -11.4327   60.0238 H        80        0    0.0000
    486 H         169.2387   -9.6767   60.0200 H        80        0    0.0000
    487 C         169.9837  -10.6062   61.8504 C.3      81        0    0.0000
    488 C         171.3997  -10.9905   61.4074 C.3      81        0    0.0000
    489 H         169.9983   -9.6308   62.3525 H        81        0    0.0000
    490 H         169.6088  -11.3318   62.5829 H        81        0    0.0000
    491 H         171.4962  -12.0823   61.3615 H        81        0    0.0000
    492 H         171.5921  -10.6145   60.3949 H        81        0    0.0000
    493 C         172.4981  -10.4262   62.3731 C.3      82        0    0.0000
    494 C         173.9023  -10.9193   62.0070 C.3      82        0    0.0000
    495 H         172.4649   -9.3300   62.3443 H        82        0    0.0000
    496 H         172.2515  -10.7220   63.4004 H        82        0    0.0000
    497 H         174.0634  -11.9276   62.4081 H        82        0    0.0000
    498 H         174.0025  -10.9941   60.9171 H        82        0    0.0000
    499 C         175.0257   -9.9726   62.5538 C.3      83        0    0.0000
    500 C         176.3993  -10.6523   62.5741 C.3      83        0    0.0000
    501 H         175.0618   -9.0701   61.9311 H        83        0    0.0000
    502 H         174.7523   -9.6467   63.5651 H        83        0    0.0000
    503 H         176.2797  -11.7426   62.5527 H        83        0    0.0000
    504 H         176.9671  -10.3799   61.6758 H        83        0    0.0000
    505 C         177.2374  -10.2607   63.8397 C.3      84        0    0.0000
    506 C         178.6715  -10.7975   63.7756 C.3      84        0    0.0000
    507 H         177.2487   -9.1676   63.9319 H        84        0    0.0000
    508 H         176.7307  -10.6469   64.7327 H        84        0    0.0000
    509 H         178.9309  -11.0551   62.7412 H        84        0    0.0000
    510 H         179.3783  -10.0211   64.0936 H        84        0    0.0000
    511 C         178.8726  -12.0640   64.6772 C.3      85        0    0.0000
    512 C         180.3272  -12.5471   64.6841 C.3      85        0    0.0000
    513 H         178.5506  -11.8257   65.6985 H        85        0    0.0000
    514 H         178.2126  -12.8629   64.3171 H        85        0    0.0000
    515 H         180.4486  -13.3647   65.4054 H        85        0    0.0000
    516 H         180.5934  -12.9528   63.7002 H        85        0    0.0000
    517 C         181.3324  -11.4001   65.0465 C.3      86        0    0.0000
    518 C         182.7919  -11.8202   64.8404 C.3      86        0    0.0000
    519 H         181.1034  -10.5215   64.4307 H        86        0    0.0000
    520 H         181.1699  -11.1042   66.0903 H        86        0    0.0000
    521 H         183.0737  -12.5776   65.5824 H        86        0    0.0000
    522 H         182.9139  -12.2848   63.8541 H        86        0    0.0000
    523 C         183.7805  -10.6090   64.9542 C.3      87        0    0.0000
    524 C         185.1984  -11.0501   65.3336 C.3      87        0    0.0000
    525 H         183.7966  -10.0745   63.9963 H        87        0    0.0000
    526 H         183.3930   -9.9052   65.7012 H        87        0    0.0000
    527 H         185.2766  -12.1435   65.2896 H        87        0    0.0000
    528 H         185.9220  -10.6532   64.6108 H        87        0    0.0000
    529 C         185.6050  -10.5720   66.7701 C.3      88        0    0.0000
    530 C         187.0181  -11.0240   67.1545 C.3      88        0    0.0000
    531 H         185.5357   -9.4779   66.8114 H        88        0    0.0000
    532 H         184.8762  -10.9613   67.4918 H        88        0    0.0000
    533 H         187.5932  -11.2682   66.2528 H        88        0    0.0000
    534 H         187.5510  -10.2068   67.6563 H        88        0    0.0000
    535 C         187.0054  -12.2745   68.0998 C.3      89        0    0.0000
    536 C         188.3968  -12.8975   68.2577 C.3      89        0    0.0000
    537 H         186.6148  -11.9730   69.0797 H        89        0    0.0000
    538 H         186.3048  -13.0159   67.6960 H        89        0    0.0000
    539 H         188.5057  -13.3250   69.2621 H        89        0    0.0000
    540 H         188.5212  -13.7247   67.5480 H        89        0    0.0000
    541 C         189.5443  -11.8551   68.0250 C.3      90        0    0.0000
    542 C         190.9048  -12.5274   67.8102 C.3      90        0    0.0000
    543 H         189.2891  -11.2364   67.1558 H        90        0    0.0000
    544 H         189.5901  -11.1808   68.8892 H        90        0    0.0000
    545 H         191.0278  -13.3607   68.5130 H        90        0    0.0000
    546 H         190.9579  -12.9555   66.8016 H        90        0    0.0000
    547 C         192.0977  -11.5278   67.9983 C.3      91        0    0.0000
    548 C         193.4061  -12.2443   68.3497 C.3      91        0    0.0000
    549 H         192.2223  -10.9483   67.0751 H        91        0    0.0000
    550 H         191.8376  -10.8112   68.7873 H        91        0    0.0000
    551 H         193.4109  -12.5195   69.4117 H        91        0    0.0000
    552 H         193.4872  -13.1794   67.7817 H        91        0    0.0000
    553 C         194.6661  -11.3608   68.0510 C.3      92        0    0.0000
    554 C         195.9431  -11.9431   68.6668 C.3      92        0    0.0000
    555 H         194.7820  -11.2660   66.9642 H        92        0    0.0000
    556 H         194.4889  -10.3498   68.4383 H        92        0    0.0000
    557 H         195.8066  -13.0114   68.8759 H        92        0    0.0000
    558 H         196.7737  -11.8652   67.9543 H        92        0    0.0000
    559 C         196.3472  -11.2158   69.9954 C.3      93        0    0.0000
    560 C         197.7291  -11.6486   70.4974 C.3      93        0    0.0000
    561 H         196.3315  -10.1323   69.8243 H        93        0    0.0000
    562 H         195.5872  -11.4253   70.7584 H        93        0    0.0000
    563 H         197.9955  -11.0840   71.3995 H        93        0    0.0000
    564 H         197.7110  -12.7078   70.7826 H        93        0    0.0000
    565 C         198.8467  -11.4348   69.4191 C.3      94        0    0.0000
    566 C         200.1907  -12.0331   69.8490 C.3      94        0    0.0000
    567 H         198.5183  -11.8870   68.4750 H        94        0    0.0000
    568 H         198.9563  -10.3594   69.2319 H        94        0    0.0000
    569 H         200.3880  -12.9557   69.2892 H        94        0    0.0000
    570 H         201.0055  -11.3388   69.6091 H        94        0    0.0000
    571 C         200.2350  -12.3535   71.3829 C.3      95        0    0.0000
    572 C         201.6650  -12.5704   71.8899 C.3      95        0    0.0000
    573 H         199.7628  -11.5283   71.9302 H        95        0    0.0000
    574 H         199.6281  -13.2470   71.5751 H        95        0    0.0000
    575 H         202.3623  -11.9320   71.3333 H        95        0    0.0000
    576 H         201.7394  -12.2743   72.9436 H        95        0    0.0000
    577 C         202.1248  -14.0625   71.7506 C.3      96        0    0.0000
    578 C         203.5566  -14.1817   71.2169 C.3      96        0    0.0000
    579 H         202.0469  -14.5495   72.7306 H        96        0    0.0000
    580 H         201.4296  -14.5859   71.0826 H        96        0    0.0000
    581 H         203.9292  -15.2030   71.3642 H        96        0    0.0000
    582 H         203.5721  -13.9935   70.1362 H        96        0    0.0000
    583 C         204.5374  -13.1800   71.9184 C.3      97        0    0.0000
    584 C         206.0051  -13.5855   71.7435 C.3      97        0    0.0000
    585 H         204.3726  -12.1767   71.5063 H        97        0    0.0000
    586 H         204.2862  -13.1276   72.9850 H        97        0    0.0000
    587 H         206.2608  -14.3860   72.4488 H        97        0    0.0000
    588 H         206.1662  -13.9897   70.7364 H        97        0    0.0000
    589 C         206.9846  -12.3824   71.9678 C.3      98        0    0.0000
    590 C         208.0739  -12.7042   72.9969 C.3      98        0    0.0000
    591 H         207.4420  -12.1149   71.0072 H        98        0    0.0000
    592 H         206.4046  -11.5103   72.2942 H        98        0    0.0000
    593 H         208.2268  -11.8465   73.6635 H        98        0    0.0000
    594 H         207.7575  -13.5426   73.6298 H        98        0    0.0000
    595 C         209.4405  -13.0689   72.3211 C.3      99        0    0.0000
    596 C         210.5233  -13.4140   73.3495 C.3      99        0    0.0000
    597 H         209.2840  -13.9155   71.6412 H        99        0    0.0000
    598 H         209.7656  -12.2236   71.7020 H        99        0    0.0000
    599 H         210.0602  -13.6891   74.3053 H        99        0    0.0000
    600 H         211.0960  -14.2875   73.0140 H        99        0    0.0000
    601 C         211.5135  -12.2232   73.5920 C.3     100        0    0.0000
    602 C         212.6525  -12.6000   74.5458 C.3     100        0    0.0000
    603 H         211.9225  -11.9012   72.6264 H       100        0    0.0000
    604 H         210.9510  -11.3721   73.9955 H       100        0    0.0000
    605 H         213.2956  -11.7297   74.7261 H       100        0    0.0000
    606 H         212.2446  -12.8974   75.5199 H       100        0    0.0000
    607 C         213.5321  -13.7713   73.9874 C.3     101        0    0.0000
    608 C         214.7549  -14.0504   74.8683 C.3     101        0    0.0000
    609 H         212.9118  -14.6727   73.9084 H       101        0    0.0000
    610 H         213.8520  -13.5187   72.9689 H       101        0    0.0000
    611 H         214.5943  -13.6438   75.8745 H       101        0    0.0000
    612 H         214.8958  -15.1321   74.9844 H       101        0    0.0000
    613 C         216.0675  -13.4305   74.2764 C.3     102        0    0.0000
    614 C         216.9559  -12.8086   75.3595 C.3     102        0    0.0000
    615 H         216.6187  -14.2140   73.7418 H       102        0    0.0000
    616 H         215.7958  -12.6723   73.5315 H       102        0    0.0000
    617 H         216.7795  -11.7272   75.4155 H       102        0    0.0000
    618 H         216.6960  -13.2215   76.3421 H       102        0    0.0000
    619 C         218.4803  -13.0588   75.0933 C.3     103        0    0.0000
    620 C         219.2825  -13.1924   76.3925 C.3     103        0    0.0000
    621 H         218.5893  -13.9677   74.4888 H       103        0    0.0000
    622 H         218.8747  -12.2308   74.4912 H       103        0    0.0000
    623 H         219.2362  -12.2555   76.9613 H       103        0    0.0000
    624 H         218.8411  -13.9694   77.0289 H       103        0    0.0000
    625 C         220.7859  -13.5494   76.1283 C.3     104        0    0.0000
    626 C         221.6612  -13.3306   77.3673 C.3     104        0    0.0000
    627 H         220.8491  -14.5953   75.8031 H       104        0    0.0000
    628 H         221.1535  -12.9377   75.2952 H       104        0    0.0000
    629 H         221.2676  -12.4981   77.9637 H       104        0    0.0000
    630 H         221.6328  -14.2194   78.0097 H       104        0    0.0000
    631 C         223.1526  -13.0241   76.9944 C.3     105        0    0.0000
    632 C         224.1398  -13.6537   77.9835 C.3     105        0    0.0000
    633 H         223.3472  -13.3957   75.9807 H       105        0    0.0000
    634 H         223.2931  -11.9365   76.9636 H       105        0    0.0000
    635 H         224.1313  -13.0973   78.9289 H       105        0    0.0000
    636 H         223.8330  -14.6802   78.2192 H       105        0    0.0000
    637 C         225.6046  -13.6796   77.4256 C.3     106        0    0.0000
    638 C         226.6524  -13.5821   78.5399 C.3     106        0    0.0000
    639 H         225.7487  -14.6046   76.8535 H       106        0    0.0000
    640 H         225.7286  -12.8497   76.7189 H       106        0    0.0000
    641 H         226.5842  -12.6061   79.0360 H       106        0    0.0000
    642 H         226.4562  -14.3404   79.3081 H       106        0    0.0000
    643 C         228.1120  -13.7743   78.0013 C.3     107        0    0.0000
    644 C         229.1241  -13.9920   79.1315 C.3     107        0    0.0000
    645 H         228.1257  -14.6294   77.3142 H       107        0    0.0000
    646 H         228.3904  -12.8920   77.4118 H       107        0    0.0000
    647 H         229.4865  -13.0256   79.5033 H       107        0    0.0000
    648 H         228.6401  -14.4939   79.9784 H       107        0    0.0000
    649 C         230.3532  -14.8494   78.6713 C.3     108        0    0.0000
    650 C         231.6555  -14.4078   79.3482 C.3     108        0    0.0000
    651 H         230.1520  -15.9044   78.8949 H       108        0    0.0000
    652 H         230.4506  -14.7713   77.5814 H       108        0    0.0000
    653 H         232.4893  -15.0314   79.0025 H       108        0    0.0000
    654 H         231.8955  -13.3756   79.0648 H       108        0    0.0000
    655 C         231.5724  -14.4965   80.9111 C.3     109        0    0.0000
    656 C         232.7946  -13.8728   81.5940 C.3     109        0    0.0000
    657 H         230.6569  -13.9931   81.2456 H       109        0    0.0000
    658 H         231.4765  -15.5502   81.2009 H       109        0    0.0000
    659 H         232.7635  -12.7805   81.4964 H       109        0    0.0000
    660 H         232.7787  -14.0937   82.6685 H       109        0    0.0000
    661 C         234.1437  -14.3957   80.9907 C.3     110        0    0.0000
    662 C         235.2875  -13.3913   81.1685 C.3     110        0    0.0000
    663 H         234.4007  -15.3476   81.4717 H       110        0    0.0000
    664 H         233.9945  -14.6113   79.9254 H       110        0    0.0000
    665 H         235.1307  -12.5232   80.5162 H       110        0    0.0000
    666 H         235.2996  -13.0134   82.1983 H       110        0    0.0000
    667 C         236.6864  -14.0204   80.8447 C.3     111        0    0.0000
    668 C         237.8277  -13.3078   81.5786 C.3     111        0    0.0000
    669 H         236.6683  -15.0826   81.1185 H       111        0    0.0000
    670 H         236.8512  -13.9772   79.7609 H       111        0    0.0000
    671 H         237.6404  -12.2272   81.6062 H       111        0    0.0000
    672 H         237.8737  -13.6462   82.6212 H       111        0    0.0000
    673 C         239.2191  -13.5625   80.9029 C.3     112        0    0.0000
    674 C         240.2227  -14.2075   81.8650 C.3     112        0    0.0000
    675 H         239.0737  -14.2043   80.0251 H       112        0    0.0000
    676 H         239.6127  -12.6076   80.5332 H       112        0    0.0000
    677 H         240.6225  -13.4525   82.5533 H       112        0    0.0000
    678 H         239.7202  -14.9621   82.4826 H       112        0    0.0000
    679 C         241.4173  -14.8862   81.1102 C.3     113        0    0.0000
    680 C         242.7335  -14.7760   81.8879 C.3     113        0    0.0000
    681 H         241.1713  -15.9408   80.9347 H       113        0    0.0000
    682 H         241.5233  -14.4189   80.1233 H       113        0    0.0000
    683 H         242.6409  -15.2808   82.8575 H       113        0    0.0000
    684 H         243.5366  -15.2867   81.3423 H       113        0    0.0000
    685 C         243.1564  -13.2864   82.1321 C.3     114        0    0.0000
    686 C         244.5398  -13.1744   82.7821 C.3     114        0    0.0000
    687 H         243.1474  -12.7545   81.1727 H       114        0    0.0000
    688 H         242.4025  -12.8043   82.7667 H       114        0    0.0000
    689 H         245.0588  -14.1397   82.7308 H       114        0    0.0000
    690 H         245.1575  -12.4550   82.2304 H       114        0    0.0000
    691 C         244.4572  -12.7243   84.2814 C.3     115        0    0.0000
    692 C         245.7545  -13.0099   85.0460 C.3     115        0    0.0000
    693 H         244.2281  -11.6520   84.3165 H       115        0    0.0000
    694 H         243.6167  -13.2418   84.7601 H       115        0    0.0000
    695 H         246.5839  -12.4438   84.6042 H       115        0    0.0000
    696 H         245.6607  -12.6717   86.0854 H       115        0    0.0000
    697 C         246.1235  -14.5334   85.0416 C.3     116        0    0.0000
    698 C         247.5847  -14.7782   85.4341 C.3     116        0    0.0000
    699 H         245.4548  -15.0612   85.7328 H       116        0    0.0000
    700 H         245.9291  -14.9415   84.0420 H       116        0    0.0000
    701 H         248.0308  -13.8530   85.8194 H       116        0    0.0000
    702 H         247.6380  -15.5152   86.2450 H       116        0    0.0000
    703 C         248.4459  -15.2905   84.2285 C.3     117        0    0.0000
    704 C         249.7414  -14.4894   84.0583 C.3     117        0    0.0000
    705 H         248.6774  -16.3514   84.3848 H       117        0    0.0000
    706 H         247.8438  -15.2309   83.3133 H       117        0    0.0000
    707 H         250.3562  -14.9326   83.2651 H       117        0    0.0000
    708 H         249.5112  -13.4643   83.7428 H       117        0    0.0000
    709 C         250.5838  -14.4344   85.3793 C.3     118        0    0.0000
    710 C         252.0272  -13.9838   85.1294 C.3     118        0    0.0000
    711 H         250.0929  -13.7512   86.0834 H       118        0    0.0000
    712 H         250.5751  -15.4273   85.8458 H       118        0    0.0000
    713 H         252.3099  -14.1867   84.0890 H       118        0    0.0000
    714 H         252.1131  -12.8996   85.2735 H       118        0    0.0000
    715 C         253.0467  -14.7021   86.0792 C.3     119        0    0.0000
    716 C         254.4990  -14.3305   85.7601 C.3     119        0    0.0000
    717 H         252.8100  -14.4372   87.1172 H       119        0    0.0000
    718 H         252.9080  -15.7868   85.9915 H       119        0    0.0000
    719 H         254.8801  -14.9644   84.9498 H       119        0    0.0000
    720 H         254.5523  -13.2950   85.4016 H       119        0    0.0000
    721 C         255.4387  -14.4830   87.0055 C.3     120        0    0.0000
    722 C         256.9076  -14.2128   86.6614 C.3     120        0    0.0000
    723 H         255.1026  -13.7923   87.7887 H       120        0    0.0000
    724 H         255.3275  -15.4966   87.4104 H       120        0    0.0000
    725 H         257.0672  -14.3220   85.5816 H       120        0    0.0000
    726 H         257.1693  -13.1782   86.9155 H       120        0    0.0000
    727 C         257.8824  -15.1807   87.4167 C.3     121        0    0.0000
    728 C         259.2995  -14.6074   87.5279 C.3     121        0    0.0000
    729 H         257.4780  -15.3805   88.4167 H       121        0    0.0000
    730 H         257.9059  -16.1419   86.8885 H       121        0    0.0000
    731 H         259.2772  -13.5195   87.3883 H       121        0    0.0000
    732 H         259.7005  -14.7879   88.5329 H       121        0    0.0000
    733 C         260.2775  -15.2321   86.4739 C.3     122        0    0.0000
    734 C         261.7416  -15.1496   86.9196 C.3     122        0    0.0000
    735 H         259.9940  -16.2784   86.3051 H       122        0    0.0000
    736 H         260.1456  -14.7117   85.5172 H       122        0    0.0000
    737 H         261.7967  -15.0108   88.0065 H       122        0    0.0000
    738 H         262.2566  -16.0920   86.6959 H       122        0    0.0000
    739 C         262.5101  -13.9755   86.2207 C.3     123        0    0.0000
    740 C         263.7829  -13.5820   86.9784 C.3     123        0    0.0000
    741 H         262.7604  -14.2772   85.1960 H       123        0    0.0000
    742 H         261.8384  -13.1119   86.1396 H       123        0    0.0000
    743 H         264.5547  -13.2528   86.2717 H       123        0    0.0000
    744 H         263.5787  -12.7316   87.6406 H       123        0    0.0000
    745 C         264.3536  -14.7641   87.8354 C.3     124        0    0.0000
    746 C         265.6403  -14.3782   88.5734 C.3     124        0    0.0000
    747 H         263.5882  -15.0813   88.5545 H       124        0    0.0000
    748 H         264.5406  -15.6208   87.1760 H       124        0    0.0000
    749 H         265.7885  -13.2922   88.5281 H       124        0    0.0000
    750 H         265.5580  -14.6410   89.6353 H       124        0    0.0000
    751 C         266.9041  -15.0862   87.9741 C.3     125        0    0.0000
    752 C         268.0772  -15.1128   88.9600 C.3     125        0    0.0000
    753 H         266.6325  -16.1090   87.6848 H       125        0    0.0000
    754 H         267.1977  -14.5660   87.0539 H       125        0    0.0000
    755 H         268.7013  -14.2206   88.8262 H       125        0    0.0000
    756 H         267.7029  -15.0838   89.9908 H       125        0    0.0000
    757 C         268.9730  -16.3871   88.7833 C.3     126        0    0.0000
    758 C         270.4416  -16.1172   89.1286 C.3     126        0    0.0000
    759 H         268.5779  -17.1882   89.4202 H       126        0    0.0000
    760 H         268.8885  -16.7378   87.7472 H       126        0    0.0000
    761 H         270.9595  -17.0622   89.3339 H       126        0    0.0000
    762 H         270.9511  -15.6582   88.2723 H       126        0    0.0000
    763 C         270.5961  -15.1757   90.3725 C.3     127        0    0.0000
    764 C         272.0644  -14.8875   90.7040 C.3     127        0    0.0000
    765 H         270.0641  -14.2371   90.1737 H       127        0    0.0000
    766 H         270.1007  -15.6424   91.2329 H       127        0    0.0000
    767 H         272.2216  -14.9359   91.7887 H       127        0    0.0000
    768 H         272.7085  -15.6554   90.2579 H       127        0    0.0000
    769 C         272.5247  -13.4803   90.1890 C.3     128        0    0.0000
    770 C         274.0238  -13.2448   90.4039 C.3     128        0    0.0000
    771 H         272.2798  -13.3965   89.1229 H       128        0    0.0000
    772 H         271.9443  -12.7069   90.7072 H       128        0    0.0000
    773 H         274.1959  -12.2242   90.7676 H       128        0    0.0000
    774 H         274.4040  -13.9232   91.1777 H       128        0    0.0000
    775 C         274.8532  -13.4600   89.0912 C.3     129        0    0.0000
    776 C         276.3076  -13.8478   89.3801 C.3     129        0    0.0000
    777 H         274.3683  -14.2394   88.4904 H       129        0    0.0000
    778 H         274.8205  -12.5383   88.4972 H       129        0    0.0000
    779 H         276.9824  -13.3061   88.7057 H       129        0    0.0000
    780 H         276.5797  -13.5534   90.4013 H       129        0    0.0000
    781 C         276.5562  -15.3867   89.2147 C.3     130        0    0.0000
    782 C         277.5140  -15.9379   90.2767 C.3     130        0    0.0000
    783 H         275.5928  -15.9085   89.2698 H       130        0    0.0000
    784 H         276.9589  -15.5740   88.2115 H       130        0    0.0000
    785 H         276.9767  -16.1023   91.2189 H       130        0    0.0000
    786 H         277.9035  -16.9139   89.9617 H       130        0    0.0000
    787 C         278.7214  -14.9747   90.5450 C.3     131        0    0.0000
    788 C         279.6798  -15.5263   91.6062 C.3     131        0    0.0000
    789 H         279.2583  -14.8097   89.6026 H       131        0    0.0000
    790 H         278.3319  -13.9989   90.8606 H       131        0    0.0000
    791 H         279.1187  -16.0838   92.3664 H       131        0    0.0000
    792 H         280.3802  -16.2357   91.1483 H       131        0    0.0000
    793 C         280.4994  -14.3924   92.3135 C.3     132        0    0.0000
    794 C         281.9609  -14.7909   92.5461 C.3     132        0    0.0000
    795 H         280.4501  -13.4848   91.6992 H       132        0    0.0000
    796 H         280.0182  -14.1522   93.2697 H       132        0    0.0000
    797 H         282.2577  -14.5490   93.5742 H       132        0    0.0000
    798 H         282.0779  -15.8756   92.4314 H       132        0    0.0000
    799 C         282.9383  -14.0697   91.5551 C.3     133        0    0.0000
    800 C         284.4005  -14.1744   92.0021 C.3     133        0    0.0000
    801 H         282.8176  -14.5089   90.5571 H       133        0    0.0000
    802 H         282.6446  -13.0158   91.4731 H       133        0    0.0000
    803 H         284.9067  -13.2113   91.8616 H       133        0    0.0000
    804 H         284.4507  -14.4033   93.0739 H       133        0    0.0000
    805 C         285.1856  -15.2778   91.2125 C.3     134        0    0.0000
    806 C         286.5638  -15.5583   91.8215 C.3     134        0    0.0000
    807 H         284.5864  -16.1966   91.1987 H       134        0    0.0000
    808 H         285.2938  -14.9565   90.1691 H       134        0    0.0000
    809 H         286.4602  -16.1931   92.7102 H       134        0    0.0000
    810 H         287.1844  -16.1142   91.1079 H       134        0    0.0000
    811 C         287.3138  -14.2422   92.2254 C.3     135        0    0.0000
    812 C         288.3243  -14.4727   93.3545 C.3     135        0    0.0000
    813 H         287.8232  -13.8399   91.3410 H       135        0    0.0000
    814 H         286.5732  -13.4926   92.5307 H       135        0    0.0000
    815 H         288.2672  -13.6546   94.0832 H       135        0    0.0000
    816 H         288.0794  -15.3948   93.8961 H       135        0    0.0000
    817 C         289.7957  -14.5744   92.8233 C.3     136        0    0.0000
    818 C         290.7819  -14.9900   93.9204 C.3     136        0    0.0000
    819 H         289.8246  -15.2968   91.9982 H       136        0    0.0000
    820 H         290.0877  -13.6041   92.4028 H       136        0    0.0000
    821 H         290.5279  -14.4904   94.8635 H       136        0    0.0000
    822 H         290.7064  -16.0688   94.1052 H       136        0    0.0000
    823 C         292.2649  -14.6436   93.5486 C.3     137        0    0.0000
    824 C         293.2058  -14.7497   94.7537 C.3     137        0    0.0000
    825 H         292.5968  -15.3203   92.7514 H       137        0    0.0000
    826 H         292.2976  -13.6285   93.1340 H       137        0    0.0000
    827 H         292.8269  -14.1381   95.5818 H       137        0    0.0000
    828 H         293.2382  -15.7848   95.1157 H       137        0    0.0000
    829 C         294.6644  -14.2884   94.4110 C.3     138        0    0.0000
    830 C         295.7242  -15.2132   95.0198 C.3     138        0    0.0000
    831 H         294.7772  -14.2537   93.3204 H       138        0    0.0000
    832 H         294.8058  -13.2633   94.7752 H       138        0    0.0000
    833 H         295.4522  -15.4693   96.0513 H       138        0    0.0000
    834 H         295.7657  -16.1566   94.4614 H       138        0    0.0000
    835 C         297.1506  -14.5630   95.0200 C.3     139        0    0.0000
    836 C         298.2354  -15.5425   95.4814 C.3     139        0    0.0000
    837 H         297.3750  -14.2025   94.0085 H       139        0    0.0000
    838 H         297.1373  -13.6815   95.6730 H       139        0    0.0000
    839 H         297.9401  -16.0123   96.4278 H       139        0    0.0000
    840 H         298.3474  -16.3519   94.7494 H       139        0    0.0000
    841 C         299.6241  -14.8421   95.6767 C.3     140        0    0.0000
    842 C         300.7496  -15.8479   95.9428 C.3     140        0    0.0000
    843 H         299.8515  -14.2516   94.7806 H       140        0    0.0000
    844 H         299.5484  -14.1330   96.5104 H       140        0    0.0000
    845 H         300.4057  -16.6213   96.6408 H       140        0    0.0000
    846 H         301.0226  -16.3617   95.0128 H       140        0    0.0000
    847 C         302.0292  -15.1642   96.5368 C.3     141        0    0.0000
    848 C         303.3056  -15.5777   95.7958 C.3     141        0    0.0000
    849 H         301.9027  -14.0755   96.4894 H       141        0    0.0000
    850 H         302.1093  -15.4262   97.5991 H       141        0    0.0000
    851 H         303.3412  -16.6688   95.6879 H       141        0    0.0000
    852 H         303.3033  -15.1606   94.7811 H       141        0    0.0000
    853 C         304.6028  -15.1005   96.5354 C.3     142        0    0.0000
    854 C         305.8550  -15.8354   96.0445 C.3     142        0    0.0000
    855 H         304.7180  -14.0198   96.3856 H       142        0    0.0000
    856 H         304.4731  -15.2570   97.6135 H       142        0    0.0000
    857 H         305.6120  -16.8803   95.8149 H       142        0    0.0000
    858 H         306.2151  -15.3835   95.1120 H       142        0    0.0000
    859 C         307.0133  -15.8063   97.1005 C.3     143        0    0.0000
    860 C         308.3580  -15.4165   96.4770 C.3     143        0    0.0000
    861 H         306.7485  -15.0991   97.8963 H       143        0    0.0000
    862 H         307.0887  -16.7950   97.5700 H       143        0    0.0000
    863 H         308.6677  -16.1743   95.7467 H       143        0    0.0000
    864 H         308.2585  -14.4720   95.9280 H       143        0    0.0000
    865 C         309.4881  -15.2593   97.5521 C.3     144        0    0.0000
    866 C         310.8806  -15.5394   96.9764 C.3     144        0    0.0000
    867 H         309.4478  -14.2423   97.9614 H       144        0    0.0000
    868 H         309.2811  -15.9425   98.3852 H       144        0    0.0000
    869 H         310.9136  -16.5477   96.5454 H       144        0    0.0000
    870 H         311.0973  -14.8402   96.1592 H       144        0    0.0000
    871 C         312.0072  -15.4156   98.0594 C.3     145        0    0.0000
    872 C         313.3799  -15.1314   97.4398 C.3     145        0    0.0000
    873 H         311.7378  -14.6154   98.7600 H       145        0    0.0000
    874 H         312.0421  -16.3450   98.6411 H       145        0    0.0000
    875 H         313.4204  -15.5273   96.4175 H       145        0    0.0000
    876 H         313.5420  -14.0490   97.3650 H       145        0    0.0000
    877 C         314.5494  -15.7612   98.2723 C.3     146        0    0.0000
    878 C         315.9269  -15.3860   97.7149 C.3     146        0    0.0000
    879 H         314.4615  -15.4278   99.3138 H       146        0    0.0000
    880 H         314.4308  -16.8518   98.2796 H       146        0    0.0000
    881 H         316.1054  -15.9111   96.7684 H       146        0    0.0000
    882 H         315.9625  -14.3126   97.4911 H       146        0    0.0000
    883 C         317.0858  -15.7330   98.7118 C.3     147        0    0.0000
    884 C         318.3999  -15.0376   98.3396 C.3     147        0    0.0000
    885 H         316.7801  -15.4422   99.7245 H       147        0    0.0000
    886 H         317.2267  -16.8209   98.7254 H       147        0    0.0000
    887 H         318.4161  -14.8140   97.2657 H       147        0    0.0000
    888 H         318.4783  -14.0765   98.8627 H       147        0    0.0000
    889 C         319.6542  -15.9090   98.6931 C.3     148        0    0.0000
    890 C         320.9694  -15.1657   98.4353 C.3     148        0    0.0000
    891 H         319.5914  -16.2081   99.7468 H       148        0    0.0000
    892 H         319.6216  -16.8322   98.1012 H       148        0    0.0000
    893 H         321.1828  -15.1408   97.3595 H       148        0    0.0000
    894 H         320.8824  -14.1224   98.7634 H       148        0    0.0000
    895 C         322.1817  -15.8287   99.1758 C.3     149        0    0.0000
    896 C         323.4804  -15.0369   98.9882 C.3     149        0    0.0000
    897 H         321.9420  -15.9110  100.2431 H       149        0    0.0000
    898 H         322.3077  -16.8522   98.8014 H       149        0    0.0000
    899 H         323.4525  -14.4879   98.0388 H       149        0    0.0000
    900 H         323.5821  -14.2873   99.7828 H       149        0    0.0000
    901 C         324.7467  -15.9610   99.0005 C.3     150        0    0.0000
    902 C         326.0513  -15.1596   98.9329 C.3     150        0    0.0000
    903 H         324.7284  -16.5738   99.9102 H       150        0    0.0000
    904 H         324.6867  -16.6543   98.1524 H       150        0    0.0000
    905 H         326.4128  -15.1159   97.8980 H       150        0    0.0000
    906 H         325.8735  -14.1240   99.2484 H       150        0    0.0000
    907 C         327.1751  -15.7767   99.8350 C.3     151        0    0.0000
    908 C         328.5613  -15.2134   99.5029 C.3     151        0    0.0000
    909 H         326.9317  -15.5810  100.8867 H       151        0    0.0000
    910 H         327.1716  -16.8664   99.7083 H       151        0    0.0000
    911 H         329.0127  -15.7847   98.6823 H       151        0    0.0000
    912 H         328.4725  -14.1772   99.1539 H       151        0    0.0000
    913 C         329.5285  -15.2502  100.7360 C.3     152        0    0.0000
    914 C         330.9952  -15.0701  100.3294 C.3     152        0    0.0000
    915 H         329.2339  -14.4621  101.4401 H       152        0    0.0000
    916 H         329.3979  -16.2053  101.2596 H       152        0    0.0000
    917 H         331.6145  -15.8414  100.8038 H       152        0    0.0000
    918 H         331.1039  -15.2014   99.2456 H       152        0    0.0000
    919 C         331.5529  -13.6598  100.7260 C.3     153        0    0.0000
    920 C         333.0851  -13.6251  100.7442 C.3     153        0    0.0000
    921 H         331.1682  -12.9155  100.0178 H       153        0    0.0000
    922 H         331.1587  -13.3885  101.7132 H       153        0    0.0000
    923 H         333.4348  -12.6984  101.2159 H       153        0    0.0000
    924 H         333.4729  -14.4530  101.3505 H       153        0    0.0000
    925 C         333.6987  -13.7222   99.3049 C.3     154        0    0.0000
    926 C         335.2073  -13.9909   99.3335 C.3     154        0    0.0000
    927 H         333.1848  -14.5202   98.7546 H       154        0    0.0000
    928 H         333.4932  -12.7872   98.7691 H       154        0    0.0000
    929 H         335.3977  -15.0397   99.5928 H       154        0    0.0000
    930 H         335.6371  -13.8297   98.3371 H       154        0    0.0000
    931 C         335.9550  -13.0726  100.3608 C.3     155        0    0.0000
    932 C         337.3295  -13.6307  100.7457 C.3     155        0    0.0000
    933 H         336.0638  -12.0713   99.9260 H       155        0    0.0000
    934 H         335.3301  -12.9613  101.2556 H       155        0    0.0000
    935 H         337.6695  -13.1782  101.6854 H       155        0    0.0000
    936 H         337.2606  -14.7111  100.9231 H       155        0    0.0000
    937 C         338.4084  -13.3682   99.6391 C.3     156        0    0.0000
    938 C         339.7856  -13.9161  100.0290 C.3     156        0    0.0000
    939 H         338.0723  -13.8281   98.7014 H       156        0    0.0000
    940 H         338.4713  -12.2884   99.4556 H       156        0    0.0000
    941 H         340.0571  -13.5706  101.0342 H       156        0    0.0000
    942 H         339.7567  -15.0120  100.0697 H       156        0    0.0000
    943 C         340.9059  -13.4771   99.0241 C.3     157        0    0.0000
    944 C         342.3096  -13.6089   99.6253 C.3     157        0    0.0000
    945 H         340.8264  -14.0886   98.1167 H       157        0    0.0000
    946 H         340.7223  -12.4388   98.7214 H       157        0    0.0000
    947 H         343.0283  -13.8882   98.8450 H       157        0    0.0000
    948 H         342.6394  -12.6424  100.0261 H       157        0    0.0000
    949 C         342.3672  -14.6771  100.7712 C.3     158        0    0.0000
    950 C         343.7749  -14.8224  101.3597 C.3     158        0    0.0000
    951 H         341.6583  -14.3904  101.5579 H       158        0    0.0000
    952 H         342.0243  -15.6406  100.3740 H       158        0    0.0000
    953 H         343.8292  -15.7202  101.9879 H       158        0    0.0000
    954 H         344.5074  -14.9569  100.5541 H       158        0    0.0000
    955 C         344.1911  -13.5788  102.2185 C.3     159        0    0.0000
    956 C         345.6988  -13.3102  102.1592 C.3     159        0    0.0000
    957 H         343.6383  -12.7012  101.8610 H       159        0    0.0000
    958 H         343.8793  -13.7459  103.2570 H       159        0    0.0000
    959 H         345.9385  -12.7039  101.2769 H       159        0    0.0000
    960 H         346.0121  -12.7290  103.0354 H       159        0    0.0000
    961 C         346.5365  -14.6341  102.1052 C.3     160        0    0.0000
    962 C         348.0133  -14.3746  101.7878 C.3     160        0    0.0000
    963 H         346.4439  -15.1507  103.0686 H       160        0    0.0000
    964 H         346.1001  -15.2980  101.3487 H       160        0    0.0000
    965 H         348.1000  -13.6851  100.9389 H       160        0    0.0000
    966 H         348.5013  -13.8871  102.6408 H       160        0    0.0000
    967 C         348.7888  -15.6940  101.4483 C.3     161        0    0.0000
    968 C         350.2231  -15.4212  100.9822 C.3     161        0    0.0000
    969 H         348.7979  -16.3374  102.3369 H       161        0    0.0000
    970 H         348.2377  -16.2380  100.6712 H       161        0    0.0000
    971 H         350.8298  -16.3299  101.0806 H       161        0    0.0000
    972 H         350.2282  -15.1526   99.9185 H       161        0    0.0000
    973 C         350.9037  -14.2684  101.7977 C.3     162        0    0.0000
    974 C         352.3644  -14.0509  101.3877 C.3     162        0    0.0000
    975 H         350.3302  -13.3448  101.6506 H       162        0    0.0000
    976 H         350.8448  -14.5089  102.8665 H       162        0    0.0000
    977 H         352.9150  -14.9984  101.4404 H       162        0    0.0000
    978 H         352.4163  -13.7140  100.3449 H       162        0    0.0000
    979 C         353.0858  -12.9962  102.2959 C.3     163        0    0.0000
    980 C         354.5821  -12.8867  101.9829 C.3     163        0    0.0000
    981 H         352.6007  -12.0217  102.1598 H       163        0    0.0000
    982 H         352.9407  -13.2763  103.3467 H       163        0    0.0000
    983 H         354.7322  -12.7570  100.9039 H       163        0    0.0000
    984 H         355.0040  -11.9982  102.4687 H       163        0    0.0000
    985 C         355.3820  -14.1491  102.4562 C.3     164        0    0.0000
    986 C         356.8535  -14.0975  102.0307 C.3     164        0    0.0000
    987 H         355.3087  -14.2253  103.5481 H       164        0    0.0000
    988 H         354.9027  -15.0461  102.0448 H       164        0    0.0000
    989 H         356.9265  -13.9841  100.9419 H       164        0    0.0000
    990 H         357.3423  -13.2202  102.4723 H       164        0    0.0000
    991 C         357.6412  -15.3835  102.4586 C.3     165        0    0.0000
    992 C         359.1536  -15.2304  102.2628 C.3     165        0    0.0000
    993 H         357.4182  -15.6011  103.5105 H       165        0    0.0000
    994 H         357.2707  -16.2356  101.8753 H       165        0    0.0000
    995 H         359.6468  -15.0952  103.2334 H       165        0    0.0000
    996 H         359.5703  -16.1447  101.8223 H       165        0    0.0000
    997 C         359.5131  -14.0155  101.3397 C.3     166        0    0.0000
    998 C         360.9899  -13.6201  101.4489 C.3     166        0    0.0000
    999 H         359.2690  -14.2753  100.3022 H       166        0    0.0000
   1000 H         358.8751  -13.1650  101.6101 H       166        0    0.0000
   1001 H         361.2657  -13.4831  102.5018 H       166        0    0.0000
   1002 H         361.6247  -14.4255  101.0591 H       166        0    0.0000
   1003 C         361.3110  -12.3002  100.6665 C.3     167        0    0.0000
   1004 C         362.7317  -11.7942  100.9394 C.3     167        0    0.0000
   1005 H         361.1767  -12.4837   99.5933 H       167        0    0.0000
   1006 H         360.5781  -11.5344  100.9492 H       167        0    0.0000
   1007 H         363.1735  -11.3976  100.0169 H       167        0    0.0000
   1008 H         362.7043  -10.9650  101.6573 H       167        0    0.0000
   1009 C         363.6653  -12.9201  101.5033 C.3     168        0    0.0000
   1010 C         365.1274  -12.4700  101.5962 C.3     168        0    0.0000
   1011 H         363.3001  -13.2192  102.4937 H       168        0    0.0000
   1012 H         363.5840  -13.8033  100.8577 H       168        0    0.0000
   1013 H         365.4764  -12.1206  100.6166 H       168        0    0.0000
   1014 H         365.2163  -11.6199  102.2839 H       168        0    0.0000
   1015 C         366.0728  -13.6194  102.0889 C.3     169        0    0.0000
   1016 C         367.5398  -13.1796  102.1481 C.3     169        0    0.0000
   1017 H         365.7393  -13.9512  103.0799 H       169        0    0.0000
   1018 H         365.9646  -14.4790  101.4159 H       169        0    0.0000
   1019 H         367.6021  -12.1052  102.3611 H       169        0    0.0000
   1020 H         368.0538  -13.6940  102.9696 H       169        0    0.0000
   1021 C         368.3030  -13.4748  100.8110 C.3     170        0    0.0000
   1022 C         369.7561  -12.9892  100.8522 C.3     170        0    0.0000
   1023 H         368.2724  -14.5542  100.6172 H       170        0    0.0000
   1024 H         367.7680  -12.9910   99.9843 H       170        0    0.0000
   1025 H         370.1450  -12.8790   99.8324 H       170        0    0.0000
   1026 H         369.8082  -11.9973  101.3181 H       170        0    0.0000
   1027 C         370.6878  -13.9694  101.6451 C.3     171        0    0.0000
   1028 C         372.1265  -13.4505  101.7444 C.3     171        0    0.0000
   1029 H         370.2715  -14.1184  102.6491 H       171        0    0.0000
   1030 H         370.6742  -14.9483  101.1500 H       171        0    0.0000
   1031 H         372.7766  -14.2238  102.1720 H       171        0    0.0000
   1032 H         372.5165  -13.2292  100.7432 H       171        0    0.0000
   1033 C         372.2325  -12.1578  102.6249 C.3     172        0    0.0000
   1034 C         373.6853  -11.7221  102.8445 C.3     172        0    0.0000
   1035 H         371.6673  -11.3523  102.1398 H       172        0    0.0000
   1036 H         371.7464  -12.3467  103.5901 H       172        0    0.0000
   1037 H         373.8528  -11.4914  103.9038 H       172        0    0.0000
   1038 H         374.3669  -12.5429  102.5891 H       172        0    0.0000
   1039 C         374.0646  -10.4653  101.9876 C.3     173        0    0.0000
   1040 C         375.4837  -10.5584  101.4164 C.3     173        0    0.0000
   1041 H         373.3373  -10.3602  101.1729 H       173        0    0.0000
   1042 H         373.9688   -9.5690  102.6129 H       173        0    0.0000
   1043 H         375.4909  -11.2052  100.5303 H       173        0    0.0000
   1044 H         375.8221   -9.5684  101.0864 H       173        0    0.0000
   1045 C         376.5088  -11.1205  102.4608 C.3     174        0    0.0000
   1046 C         377.7744  -11.6710  101.7942 C.3     174        0    0.0000
   1047 H         376.7716  -10.3206  103.1641 H       174        0    0.0000
   1048 H         376.0198  -11.9080  103.0476 H       174        0    0.0000
   1049 H         377.5042  -12.3167  100.9494 H       174        0    0.0000
   1050 H         378.3715  -10.8476  101.3829 H       174        0    0.0000
   1051 C         378.6633  -12.4903  102.7923 C.3     175        0    0.0000
   1052 C         380.0398  -12.8224  102.2060 C.3     175        0    0.0000
   1053 H         378.7781  -11.9138  103.7186 H       175        0    0.0000
   1054 H         378.1353  -13.4140  103.0595 H       175        0    0.0000
   1055 H         380.2319  -13.8997  102.2841 H       175        0    0.0000
   1056 H         380.0633  -12.5749  101.1375 H       175        0    0.0000
   1057 C         381.1959  -12.0493  102.9293 C.3     176        0    0.0000
   1058 C         382.4933  -12.0483  102.1134 C.3     176        0    0.0000
   1059 H         380.8689  -11.0191  103.1172 H       176        0    0.0000
   1060 H         381.3689  -12.5088  103.9104 H       176        0    0.0000
   1061 H         382.6093  -13.0055  101.5900 H       176        0    0.0000
   1062 H         382.4515  -11.2701  101.3412 H       176        0    0.0000
   1063 C         383.7575  -11.8051  103.0079 C.3     177        0    0.0000
   1064 C         385.0632  -11.9336  102.2155 C.3     177        0    0.0000
   1065 H         383.6865  -10.8064  103.4565 H       177        0    0.0000
   1066 H         383.7480  -12.5240  103.8365 H       177        0    0.0000
   1067 H         385.8059  -12.4887  102.8018 H       177        0    0.0000
   1068 H         384.8912  -12.5100  101.2981 H       177        0    0.0000
   1069 C         385.6641  -10.5379  101.8302 C.3     178        0    0.0000
   1070 C         387.0785  -10.6542  101.2515 C.3     178        0    0.0000
   1071 H         384.9989  -10.0549  101.1037 H       178        0    0.0000
   1072 H         385.6738   -9.8988  102.7219 H       178        0    0.0000
   1073 H         387.0520  -11.1998  100.3001 H       178        0    0.0000
   1074 H         387.4781   -9.6565  101.0316 H       178        0    0.0000
   1075 C         388.0613  -11.3882  102.2277 C.3     179        0    0.0000
   1076 C         389.4517  -11.5841  101.6134 C.3     179        0    0.0000
   1077 H         388.1382  -10.8071  103.1551 H       179        0    0.0000
   1078 H         387.6299  -12.3595  102.4995 H       179        0    0.0000
   1079 H         389.8675  -12.5506  101.9242 H       179        0    0.0000
   1080 H         389.3793  -11.6097  100.5190 H       179        0    0.0000
   1081 C         390.4496  -10.4482  102.0274 C.3     180        0    0.0000
   1082 C         391.8240  -10.6144  101.3700 C.3     180        0    0.0000
   1083 H         390.0157   -9.4788  101.7523 H       180        0    0.0000
   1084 H         390.5525  -10.4487  103.1196 H       180        0    0.0000
   1085 H         392.0590  -11.6797  101.2537 H       180        0    0.0000
   1086 H         391.8135  -10.1822  100.3617 H       180        0    0.0000
   1087 C         392.9659   -9.9327  102.1999 C.3     181        0    0.0000
   1088 C         394.3508  -10.1722  101.5884 C.3     181        0    0.0000
   1089 H         392.7634   -8.8563  102.2623 H       181        0    0.0000
   1090 H         392.9360  -10.3190  103.2262 H       181        0    0.0000
   1091 H         395.1322   -9.8940  102.3064 H       181        0    0.0000
   1092 H         394.4871  -11.2391  101.3722 H       181        0    0.0000
   1093 C         394.5657   -9.3573  100.2666 C.3     182        0    0.0000
   1094 C         395.9897   -9.5033   99.7193 C.3     182        0    0.0000
   1095 H         393.8386   -9.6979   99.5191 H       182        0    0.0000
   1096 H         394.3445   -8.3008  100.4626 H       182        0    0.0000
   1097 H         396.1609  -10.5345   99.3863 H       182        0    0.0000
   1098 H         396.1220   -8.8620   98.8390 H       182        0    0.0000
   1099 C         397.0771   -9.1294  100.7848 C.3     183        0    0.0000
   1100 C         398.4795   -9.5867  100.3689 C.3     183        0    0.0000
   1101 H         397.0651   -8.0428  100.9359 H       183        0    0.0000
   1102 H         396.8024   -9.5839  101.7448 H       183        0    0.0000
   1103 H         398.5202  -10.6821  100.3246 H       183        0    0.0000
   1104 H         398.7104   -9.2219   99.3604 H       183        0    0.0000
   1105 C         399.5869   -9.0794  101.3557 C.3     184        0    0.0000
   1106 C         401.0010   -9.3608  100.8361 C.3     184        0    0.0000
   1107 H         399.4521   -8.0024  101.5150 H       184        0    0.0000
   1108 H         399.4409   -9.5626  102.3297 H       184        0    0.0000
   1109 H         401.1309  -10.4362  100.6624 H       184        0    0.0000
   1110 H         401.1521   -8.8650   99.8692 H       184        0    0.0000
   1111 C         402.1083   -8.8726  101.8328 C.3     185        0    0.0000
   1112 C         403.5120   -8.9437  101.2217 C.3     185        0    0.0000
   1113 H         401.8818   -7.8430  102.1362 H       185        0    0.0000
   1114 H         402.0619   -9.4862  102.7410 H       185        0    0.0000
   1115 H         403.8725   -7.9340  100.9888 H       185        0    0.0000
   1116 H         404.2166   -9.3704  101.9463 H       185        0    0.0000
   1117 C         403.5476   -9.8070   99.9137 C.3     186        0    0.0000
   1118 C         404.9132   -9.7543   99.2198 C.3     186        0    0.0000
   1119 H         403.2943  -10.8439  100.1674 H       186        0    0.0000
   1120 H         402.7655   -9.4494   99.2326 H       186        0    0.0000
   1121 H         405.2142   -8.7114   99.0606 H       186        0    0.0000
   1122 H         405.6786  -10.2088   99.8610 H       186        0    0.0000
   1123 C         404.9066  -10.4948   97.8382 C.3     187        0    0.0000
   1124 C         406.3066  -10.5860   97.2213 C.3     187        0    0.0000
   1125 H         404.4909  -11.5004   97.9779 H       187        0    0.0000
   1126 H         404.2289   -9.9658   97.1567 H       187        0    0.0000
   1127 H         406.8499  -11.4393   97.6458 H       187        0    0.0000
   1128 H         406.2310  -10.7663   96.1417 H       187        0    0.0000
   1129 C         407.1463   -9.2837   97.4584 C.3     188        0    0.0000
   1130 C         408.5506   -9.5871   97.9922 C.3     188        0    0.0000
   1131 H         407.2145   -8.7300   96.5138 H       188        0    0.0000
   1132 H         406.6071   -8.6388   98.1634 H       188        0    0.0000
   1133 H         408.4861  -10.2449   98.8679 H       188        0    0.0000
   1134 H         409.1324  -10.1270   97.2349 H       188        0    0.0000
   1135 C         409.3276   -8.2861   98.3936 C.3     189        0    0.0000
   1136 C         410.8309   -8.5349   98.5586 C.3     189        0    0.0000
   1137 H         409.1550   -7.5205   97.6271 H       189        0    0.0000
   1138 H         408.9059   -7.8966   99.3285 H       189        0    0.0000
   1139 H         411.2037   -8.0101   99.4469 H       189        0    0.0000
   1140 H         411.0197   -9.6033   98.7215 H       189        0    0.0000
   1141 C         411.6521   -8.0614   97.3101 C.3     190        0    0.0000
   1142 C         413.1604   -8.0399   97.5810 C.3     190        0    0.0000
   1143 H         411.4307   -8.7283   96.4676 H       190        0    0.0000
   1144 H         411.3078   -7.0613   97.0190 H       190        0    0.0000
   1145 H         413.3593   -7.6007   98.5664 H       190        0    0.0000
   1146 H         413.5525   -9.0641   97.6076 H       190        0    0.0000
   1147 C         413.9472   -7.2256   96.4968 C.3     191        0    0.0000
   1148 C         415.4649   -7.3180   96.6890 C.3     191        0    0.0000
   1149 H         413.6703   -7.6000   95.5035 H       191        0    0.0000
   1150 H         413.6258   -6.1776   96.5394 H       191        0    0.0000
   1151 H         415.9371   -6.3657   96.4176 H       191        0    0.0000
   1152 H         415.7002   -7.4965   97.7456 H       191        0    0.0000
   1153 C         416.1042   -8.4621   95.8288 C.3     192        0    0.0000
   1154 C         417.6358   -8.4423   95.8821 C.3     192        0    0.0000
   1155 H         415.7277   -9.4276   96.1889 H       192        0    0.0000
   1156 H         415.7624   -8.3577   94.7916 H       192        0    0.0000
   1157 H         418.0498   -8.7485   94.9134 H       192        0    0.0000
   1158 H         417.9925   -7.4218   96.0687 H       192        0    0.0000
   1159 C         418.2038   -9.3878   96.9960 C.3     193        0    0.0000
   1160 C         419.3469   -8.7371   97.7828 C.3     193        0    0.0000
   1161 H         417.3881   -9.6630   97.6759 H       193        0    0.0000
   1162 H         418.5508  -10.3172   96.5277 H       193        0    0.0000
   1163 H         418.9445   -8.0089   98.4979 H       193        0    0.0000
   1164 H         419.8782   -9.4956   98.3710 H       193        0    0.0000
   1165 C         420.3746   -8.0119   96.8473 C.3     194        0    0.0000
   1166 C         421.6541   -7.6114   97.5900 C.3     194        0    0.0000
   1167 H         420.6187   -8.6755   96.0085 H       194        0    0.0000
   1168 H         419.8956   -7.1235   96.4172 H       194        0    0.0000
   1169 H         421.4015   -7.1538   98.5546 H       194        0    0.0000
   1170 H         422.2549   -8.5022   97.8117 H       194        0    0.0000
   1171 C         422.5286   -6.6042   96.7665 C.3     195        0    0.0000
   1172 C         423.9050   -7.1809   96.4173 C.3     195        0    0.0000
   1173 H         421.9896   -6.3357   95.8495 H       195        0    0.0000
   1174 H         422.6440   -5.6800   97.3462 H       195        0    0.0000
   1175 H         424.3161   -7.7214   97.2789 H       195        0    0.0000
   1176 H         423.8118   -7.9103   95.6031 H       195        0    0.0000
   1177 C         424.9228   -6.0693   95.9857 C.3     196        0    0.0000
   1178 C         426.2989   -6.6461   95.6357 C.3     196        0    0.0000
   1179 H         424.5114   -5.5284   95.1245 H       196        0    0.0000
   1180 H         425.0165   -5.3403   96.8001 H       196        0    0.0000
   1181 H         426.9719   -6.5634   96.4981 H       196        0    0.0000
   1182 H         426.2113   -7.7152   95.4058 H       196        0    0.0000
   1183 C         426.9543   -5.9182   94.4117 C.3     197        0    0.0000
   1184 C         428.4585   -6.1939   94.3092 C.3     197        0    0.0000
   1185 H         426.4487   -6.2441   93.4943 H       197        0    0.0000
   1186 H         426.7750   -4.8398   94.5042 H       197        0    0.0000
   1187 H         428.8460   -6.5310   95.2785 H       197        0    0.0000
   1188 H         428.6442   -7.0064   93.5958 H       197        0    0.0000
   1189 C         429.2648   -4.9286   93.8550 C.3     198        0    0.0000
   1190 C         430.7798   -5.1388   93.9539 C.3     198        0    0.0000
   1191 H         428.9857   -4.6832   92.8228 H       198        0    0.0000
   1192 H         428.9622   -4.0753   94.4745 H       198        0    0.0000
   1193 H         431.2359   -4.3233   94.5287 H       198        0    0.0000
   1194 H         430.9960   -6.0668   94.4976 H       198        0    0.0000
   1195 C         431.4633   -5.2078   92.5448 C.3     199        0    0.0000
   1196 C         432.9567   -5.5392   92.6392 C.3     199        0    0.0000
   1197 H         430.9480   -5.9631   91.9384 H       199        0    0.0000
   1198 H         431.3227   -4.2460   92.0362 H       199        0    0.0000
   1199 H         433.0941   -6.5344   93.0799 H       199        0    0.0000
   1200 H         433.3981   -5.5753   91.6356 H       199        0    0.0000
   1201 C         433.7442   -4.4922   93.5001 C.3     200        0    0.0000
   1202 C         435.2549   -4.7505   93.4900 C.3     200        0    0.0000
   1203 H         433.5319   -3.4869   93.1157 H       200        0    0.0000
   1204 H         433.3642   -4.5229   94.5288 H       200        0    0.0000
   1205 H         435.6838   -4.5120   94.4712 H       200        0    0.0000
   1206 H         435.4535   -5.8143   93.3095 H       200        0    0.0000
   1207 C         435.9948   -3.9057   92.3962 C.3     201        0    0.0000
   1208 C         437.4826   -4.2598   92.2967 C.3     201        0    0.0000
   1209 H         435.5033   -4.0709   91.4294 H       201        0    0.0000
   1210 H         435.8765   -2.8408   92.6319 H       201        0    0.0000
   1211 H         438.0900   -3.3471   92.3367 H       201        0    0.0000
   1212 H         437.7812   -4.8748   93.1547 H       201        0    0.0000
   1213 C         437.8219   -5.0350   90.9770 C.3     202        0    0.0000
   1214 C         439.2924   -4.8796   90.5738 C.3     202        0    0.0000
   1215 H         437.5806   -6.0958   91.1181 H       202        0    0.0000
   1216 H         437.1707   -4.6679   90.1740 H       202        0    0.0000
   1217 H         439.4950   -5.4545   89.6617 H       202        0    0.0000
   1218 H         439.5092   -3.8300   90.3393 H       202        0    0.0000
   1219 C         440.2713   -5.3582   91.7008 C.3     203        0    0.0000
   1220 C         441.7272   -4.9831   91.4034 C.3     203        0    0.0000
   1221 H         439.9561   -4.9161   92.6541 H       203        0    0.0000
   1222 H         440.1781   -6.4457   91.8117 H       203        0    0.0000
   1223 H         441.9201   -3.9487   91.7139 H       203        0    0.0000
   1224 H         442.4059   -5.6186   91.9857 H       203        0    0.0000
   1225 C         442.0794   -5.1282   89.8827 C.3     204        0    0.0000
   1226 C         443.2757   -4.2597   89.4782 C.3     204        0    0.0000
   1227 H         442.2906   -6.1830   89.6678 H       204        0    0.0000
   1228 H         441.1986   -4.8557   89.2882 H       204        0    0.0000
   1229 H         443.1197   -3.8494   88.4728 H       204        0    0.0000
   1230 H         443.3656   -3.4031   90.1576 H       204        0    0.0000
   1231 C         444.6234   -5.0604   89.4936 C.3     205        0    0.0000
   1232 C         445.7610   -4.2961   88.8078 C.3     205        0    0.0000
   1233 H         444.8919   -5.2807   90.5342 H       205        0    0.0000
   1234 H         444.4665   -6.0263   88.9975 H       205        0    0.0000
   1235 H         446.3036   -4.9618   88.1252 H       205        0    0.0000
   1236 H         445.3522   -3.4826   88.1957 H       205        0    0.0000
   1237 C         446.7766   -3.6920   89.8380 C.3     206        0    0.0000
   1238 C         447.9058   -2.9146   89.1529 C.3     206        0    0.0000
   1239 H         446.2321   -3.0350   90.5275 H       206        0    0.0000
   1240 H         447.1937   -4.5068   90.4426 H       206        0    0.0000
   1241 H         447.4868   -2.1287   88.5124 H       206        0    0.0000
   1242 H         448.5259   -2.4110   89.9048 H       206        0    0.0000
   1243 C         448.8217   -3.8418   88.2815 C.3     207        0    0.0000
   1244 C         449.8840   -3.0502   87.5109 C.3     207        0    0.0000
   1245 H         449.3029   -4.5792   88.9358 H       207        0    0.0000
   1246 H         448.1913   -4.4050   87.5822 H       207        0    0.0000
   1247 H         449.4440   -2.1347   87.0965 H       207        0    0.0000
   1248 H         450.6850   -2.7349   88.1910 H       207        0    0.0000
   1249 C         450.5130   -3.8829   86.3411 C.3     208        0    0.0000
   1250 C         451.7972   -3.2454   85.7995 C.3     208        0    0.0000
   1251 H         450.7200   -4.8983   86.7013 H       208        0    0.0000
   1252 H         449.7726   -3.9787   85.5373 H       208        0    0.0000
   1253 H         451.8438   -3.3610   84.7095 H       208        0    0.0000
   1254 H         451.7965   -2.1673   86.0022 H       208        0    0.0000
   1255 C         453.0859   -3.8773   86.4300 C.3     209        0    0.0000
   1256 C         454.3665   -3.1850   85.9507 C.3     209        0    0.0000
   1257 H         453.0115   -3.8158   87.5228 H       209        0    0.0000
   1258 H         453.1173   -4.9441   86.1759 H       209        0    0.0000
   1259 H         455.1384   -3.9327   85.7301 H       209        0    0.0000
   1260 H         454.1746   -2.6450   85.0152 H       209        0    0.0000
   1261 C         454.9287   -2.1759   87.0105 C.3     210        0    0.0000
   1262 C         456.1786   -1.4439   86.5096 C.3     210        0    0.0000
   1263 H         454.1434   -1.4517   87.2604 H       210        0    0.0000
   1264 H         455.1577   -2.7232   87.9332 H       210        0    0.0000
   1265 H         455.9842   -0.3659   86.4489 H       210        0    0.0000
   1266 H         457.0025   -1.5758   87.2218 H       210        0    0.0000
   1267 C         456.6415   -1.9539   85.1014 C.3     211        0    0.0000
   1268 C         457.8787   -1.2070   84.5910 C.3     211        0    0.0000
   1269 H         456.8510   -3.0288   85.1659 H       211        0    0.0000
   1270 H         455.8123   -1.8366   84.3928 H       211        0    0.0000
   1271 H         457.5772   -0.3996   83.9122 H       211        0    0.0000
   1272 H         458.4049   -0.7339   85.4292 H       211        0    0.0000
   1273 C         458.8758   -2.1540   83.8382 C.3     212        0    0.0000
   1274 C         460.1186   -1.4095   83.3382 C.3     212        0    0.0000
   1275 H         459.1704   -2.9664   84.5141 H       212        0    0.0000
   1276 H         458.3519   -2.6204   82.9947 H       212        0    0.0000
   1277 H         460.3068   -1.6560   82.2859 H       212        0    0.0000
   1278 H         459.9515   -0.3262   83.3829 H       212        0    0.0000
   1279 C         461.3972   -1.7585   84.1753 C.3     213        0    0.0000
   1280 C         462.5532   -0.7904   83.9010 C.3     213        0    0.0000
   1281 H         461.1375   -1.7418   85.2411 H       213        0    0.0000
   1282 H         461.7033   -2.7858   83.9417 H       213        0    0.0000
   1283 H         462.1626    0.2156   83.7036 H       213        0    0.0000
   1284 H         463.1956   -0.7108   84.7867 H       213        0    0.0000
   1285 C         463.4285   -1.2408   82.6809 C.3     214        0    0.0000
   1286 C         464.6716   -0.3624   82.5021 C.3     214        0    0.0000
   1287 H         463.7249   -2.2872   82.8255 H       214        0    0.0000
   1288 H         462.8127   -1.2104   81.7735 H       214        0    0.0000
   1289 H         464.4442    0.4805   81.8377 H       214        0    0.0000
   1290 H         464.9700    0.0679   83.4661 H       214        0    0.0000
   1291 C         465.8831   -1.1609   81.9086 C.3     215        0    0.0000
   1292 C         467.0666   -0.2499   81.5643 C.3     215        0    0.0000
   1293 H         466.1936   -1.9231   82.6340 H       215        0    0.0000
   1294 H         465.5479   -1.6972   81.0122 H       215        0    0.0000
   1295 H         466.7028    0.7325   81.2387 H       215        0    0.0000
   1296 H         467.6812   -0.0784   82.4567 H       215        0    0.0000
   1297 C         467.9718   -0.8530   80.4355 C.3     216        0    0.0000
   1298 C         469.0869    0.1082   80.0095 C.3     216        0    0.0000
   1299 H         468.4042   -1.7952   80.7945 H       216        0    0.0000
   1300 H         467.3417   -1.1040   79.5732 H       216        0    0.0000
   1301 H         469.5444   -0.2372   79.0741 H       216        0    0.0000
   1302 H         468.6697    1.1025   79.8077 H       216        0    0.0000
   1303 C         470.2053    0.2414   81.0999 C.3     217        0    0.0000
   1304 C         471.3957    1.0744   80.6123 C.3     217        0    0.0000
   1305 H         469.7706    0.6963   81.9986 H       217        0    0.0000
   1306 H         470.5412   -0.7630   81.3864 H       217        0    0.0000
   1307 H         471.0757    1.7576   79.8158 H       217        0    0.0000
   1308 H         471.7771    1.6996   81.4292 H       217        0    0.0000
   1309 C         472.5648    0.1807   80.0720 C.3     218        0    0.0000
   1310 C         473.6075    0.9940   79.2974 C.3     218        0    0.0000
   1311 H         473.0396   -0.3304   80.9187 H       218        0    0.0000
   1312 H         472.1435   -0.6013   79.4281 H       218        0    0.0000
   1313 H         473.4254    2.0671   79.4348 H       218        0    0.0000
   1314 H         474.6111    0.7918   79.6917 H       218        0    0.0000
   1315 C         473.5929    0.6715   77.7634 C.3     219        0    0.0000
   1316 C         474.1784    1.8125   76.9243 C.3     219        0    0.0000
   1317 H         474.1599   -0.2517   77.5908 H       219        0    0.0000
   1318 H         472.5599    0.4691   77.4545 H       219        0    0.0000
   1319 H         473.5789    1.9583   76.0172 H       219        0    0.0000
   1320 H         474.1339    2.7538   77.4861 H       219        0    0.0000
   1321 C         475.6656    1.5419   76.5089 C.3     220        0    0.0000
   1322 C         476.5659    2.7593   76.7468 C.3     220        0    0.0000
   1323 H         476.0400    0.6806   77.0759 H       220        0    0.0000
   1324 H         475.6906    1.2568   75.4498 H       220        0    0.0000
   1325 H         476.0994    3.6597   76.3281 H       220        0    0.0000
   1326 H         476.6824    2.9363   77.8232 H       220        0    0.0000
   1327 C         477.9861    2.5820   76.1072 C.3     221        0    0.0000
   1328 C         479.0325    3.4964   76.7536 C.3     221        0    0.0000
   1329 H         478.2903    1.5327   76.2070 H       221        0    0.0000
   1330 H         477.9180    2.7894   75.0320 H       221        0    0.0000
   1331 H         478.9692    4.5036   76.3233 H       221        0    0.0000
   1332 H         478.8306    3.5992   77.8270 H       221        0    0.0000
   1333 C         480.4919    2.9565   76.5634 C.3     222        0    0.0000
   1334 C         481.1735    3.5486   75.3250 C.3     222        0    0.0000
   1335 H         481.0756    3.1909   77.4623 H       222        0    0.0000
   1336 H         480.4571    1.8627   76.4868 H       222        0    0.0000
   1337 H         480.4279    3.7522   74.5465 H       222        0    0.0000
   1338 H         481.6385    4.5102   75.5751 H       222        0    0.0000
   1339 C         482.2702    2.5948   74.7373 C.3     223        0    0.0000
   1340 C         482.9731    3.2002   73.5174 C.3     223        0    0.0000
   1341 H         483.0035    2.3731   75.5225 H       223        0    0.0000
   1342 H         481.8008    1.6410   74.4662 H       223        0    0.0000
   1343 H         482.4455    2.9144   72.5990 H       223        0    0.0000
   1344 H         482.9424    4.2955   73.5706 H       223        0    0.0000
   1345 C         484.4680    2.7415   73.4048 C.3     224        0    0.0000
   1346 C         485.3840    3.8641   72.9051 C.3     224        0    0.0000
   1347 H         484.8052    2.3906   74.3880 H       224        0    0.0000
   1348 H         484.5237    1.8808   72.7269 H       224        0    0.0000
   1349 H         484.9936    4.2788   71.9675 H       224        0    0.0000
   1350 H         485.4008    4.6869   73.6306 H       224        0    0.0000
   1351 C         486.8527    3.3707   72.6665 C.3     225        0    0.0000
   1352 C         487.5396    4.1235   71.5218 C.3     225        0    0.0000
   1353 H         487.4232    3.4964   73.5951 H       225        0    0.0000
   1354 H         486.8338    2.2951   72.4516 H       225        0    0.0000
   1355 H         486.8759    4.1683   70.6494 H       225        0    0.0000
   1356 H         487.7389    5.1604   71.8196 H       225        0    0.0000
   1357 C         488.8903    3.4518   71.0952 C.3     226        0    0.0000
   1358 C         489.9562    4.4838   70.7108 C.3     226        0    0.0000
   1359 H         489.2516    2.8280   71.9221 H       226        0    0.0000
   1360 H         488.6987    2.7770   70.2518 H       226        0    0.0000
   1361 H         489.6214    5.0650   69.8427 H       226        0    0.0000
   1362 H         490.1015    5.1979   71.5309 H       226        0    0.0000
   1363 C         491.3338    3.8170   70.3716 C.3     227        0    0.0000
   1364 C         492.2368    4.7380   69.5438 C.3     227        0    0.0000
   1365 H         491.8341    3.5426   71.3086 H       227        0    0.0000
   1366 H         491.1497    2.8824   69.8274 H       227        0    0.0000
   1367 H         491.8098    4.8838   68.5438 H       227        0    0.0000
   1368 H         492.2919    5.7293   70.0105 H       227        0    0.0000
   1369 C         493.6896    4.1683   69.3948 C.3     228        0    0.0000
   1370 C         494.6101    5.1194   68.6220 C.3     228        0    0.0000
   1371 H         494.0992    3.9781   70.3946 H       228        0    0.0000
   1372 H         493.6384    3.1979   68.8855 H       228        0    0.0000
   1373 H         495.3401    4.5449   68.0385 H       228        0    0.0000
   1374 H         494.0256    5.7077   67.9038 H       228        0    0.0000
   1375 C         495.3812    6.1009   69.5704 C.3     229        0    0.0000
   1376 C         496.3117    7.0431   68.7987 C.3     229        0    0.0000
   1377 H         494.6511    6.6823   70.1469 H       229        0    0.0000
   1378 H         495.9580    5.5126   70.2948 H       229        0    0.0000
   1379 H         495.7219    7.7851   68.2464 H       229        0    0.0000
   1380 H         496.9456    7.6020   69.4984 H       229        0    0.0000
   1381 C         497.2308    6.2742   67.7880 C.3     230        0    0.0000
   1382 C         498.0697    7.2247   66.9268 C.3     230        0    0.0000
   1383 H         497.8868    5.5982   68.3504 H       230        0    0.0000
   1384 H         496.6020    5.6429   67.1481 H       230        0    0.0000
   1385 H         497.4132    7.8640   66.3235 H       230        0    0.0000
   1386 H         498.6579    7.8930   67.5678 H       230        0    0.0000
   1387 C         499.0443    6.4555   65.9698 C.3     231        0    0.0000
   1388 C         500.3890    7.1734   65.8107 C.3     231        0    0.0000
   1389 H         499.2022    5.4441   66.3644 H       231        0    0.0000
   1390 H         498.5614    6.3401   64.9915 H       231        0    0.0000
   1391 H         500.2646    8.0731   65.1953 H       231        0    0.0000
   1392 H         500.7544    7.5090   66.7892 H       231        0    0.0000
   1393 C         501.4774    6.2573   65.1520 C.3     232        0    0.0000
   1394 C         502.5296    7.0652   64.3846 C.3     232        0    0.0000
   1395 H         501.9595    5.6610   65.9366 H       232        0    0.0000
   1396 H         500.9816    5.5484   64.4773 H       232        0    0.0000
   1397 H         502.2782    7.0922   63.3171 H       232        0    0.0000
   1398 H         502.5336    8.1052   64.7337 H       232        0    0.0000
   1399 C         503.9711    6.4714   64.5494 C.3     233        0    0.0000
   1400 C         505.0562    7.4360   64.0587 C.3     233        0    0.0000
   1401 H         504.1344    6.2277   65.6065 H       233        0    0.0000
   1402 H         504.0295    5.5262   63.9955 H       233        0    0.0000
   1403 H         504.6645    8.4603   64.0311 H       233        0    0.0000
   1404 H         505.9005    7.4403   64.7593 H       233        0    0.0000
   1405 C         505.5855    7.0588   62.6321 C.3     234        0    0.0000
   1406 C         506.4627    8.1608   62.0279 C.3     234        0    0.0000
   1407 H         506.1526    6.1223   62.7015 H       234        0    0.0000
   1408 H         504.7276    6.8598   61.9779 H       234        0    0.0000
   1409 H         506.2101    8.3051   60.9701 H       234        0    0.0000
   1410 H         506.2674    9.1156   62.5316 H       234        0    0.0000
   1411 C         507.9914    7.8328   62.1420 C.3     235        0    0.0000
   1412 C         508.7895    8.3596   60.9443 C.3     235        0    0.0000
   1413 H         508.3779    8.2676   63.0721 H       235        0    0.0000
   1414 H         508.1145    6.7460   62.2274 H       235        0    0.0000
   1415 H         508.2508    8.1501   60.0119 H       235        0    0.0000
   1416 H         508.8920    9.4499   61.0108 H       235        0    0.0000
   1417 C         510.2190    7.7222   60.8562 C.3     236        0    0.0000
   1418 C         511.1946    8.5922   60.0562 C.3     236        0    0.0000
   1419 H         510.6003    7.5670   61.8731 H       236        0    0.0000
   1420 H         510.1358    6.7297   60.3961 H       236        0    0.0000
   1421 H         511.8034    7.9637   59.3944 H       236        0    0.0000
   1422 H         510.6394    9.2840   59.4107 H       236        0    0.0000
   1423 C         512.1484    9.4217   60.9834 C.3     237        0    0.0000
   1424 C         513.2159   10.1812   60.1879 C.3     237        0    0.0000
   1425 H         511.5461   10.1252   61.5715 H       237        0    0.0000
   1426 H         512.6260    8.7411   61.6990 H       237        0    0.0000
   1427 H         512.7465   10.9673   59.5836 H       237        0    0.0000
   1428 H         513.9099   10.6830   60.8736 H       237        0    0.0000
   1429 C         514.0349    9.2375   59.2412 C.3     238        0    0.0000
   1430 C         514.7793   10.0139   58.1493 C.3     238        0    0.0000
   1431 H         514.7471    8.6620   59.8455 H       238        0    0.0000
   1432 H         513.3495    8.5119   58.7860 H       238        0    0.0000
   1433 H         514.1760   10.0469   57.2336 H       238        0    0.0000
   1434 H         514.9312   11.0537   58.4643 H       238        0    0.0000
   1435 C         516.1728    9.3789   57.8138 C.3     239        0    0.0000
   1436 C         517.0580   10.3220   56.9918 C.3     239        0    0.0000
   1437 H         516.6755    9.1134   58.7520 H       239        0    0.0000
   1438 H         516.0118    8.4418   57.2665 H       239        0    0.0000
   1439 H         516.6963   10.3713   55.9573 H       239        0    0.0000
   1440 H         516.9988   11.3405   57.3952 H       239        0    0.0000
   1441 C         518.5590    9.8693   56.9811 C.3     240        0    0.0000
   1442 C         519.4199   10.7342   56.0537 C.3     240        0    0.0000
   1443 H         518.9489    9.9132   58.0056 H       240        0    0.0000
   1444 H         518.6092    8.8186   56.6696 H       240        0    0.0000
   1445 H         519.1389   10.5589   55.0079 H       240        0    0.0000
   1446 H         519.2382   11.7973   56.2548 H       240        0    0.0000
   1447 C         520.9510   10.4425   56.2214 C.3     241        0    0.0000
   1448 C         521.8093   11.2748   55.2624 C.3     241        0    0.0000
   1449 H         521.2388   10.6494   57.2596 H       241        0    0.0000
   1450 H         521.1278    9.3730   56.0527 H       241        0    0.0000
   1451 H         521.2267   12.1185   54.8720 H       241        0    0.0000
   1452 H         522.6645   11.7040   55.7991 H       241        0    0.0000
   1453 C         522.3432   10.4281   54.0558 C.3     242        0    0.0000
   1454 C         523.3559   11.2030   53.2054 C.3     242        0    0.0000
   1455 H         522.8020    9.5101   54.4435 H       242        0    0.0000
   1456 H         521.4919   10.1179   53.4373 H       242        0    0.0000
   1457 H         522.8411   11.9695   52.6130 H       242        0    0.0000
   1458 H         524.0663   11.7304   53.8540 H       242        0    0.0000
   1459 C         524.1562   10.2674   52.2351 C.3     243        0    0.0000
   1460 C         525.3813   10.9654   51.6341 C.3     243        0    0.0000
   1461 H         524.4666    9.3701   52.7849 H       243        0    0.0000
   1462 H         523.4852    9.9304   51.4353 H       243        0    0.0000
   1463 H         526.2866   10.6724   52.1801 H       243        0    0.0000
   1464 H         525.5234   10.6465   50.5941 H       243        0    0.0000
   1465 C         525.2525   12.5273   51.6707 C.3     244        0    0.0000
   1466 C         526.4195   13.2231   50.9614 C.3     244        0    0.0000
   1467 H         524.3027   12.8148   51.2029 H       244        0    0.0000
   1468 H         525.1998   12.8535   52.7168 H       244        0    0.0000
   1469 H         526.9890   12.4947   50.3709 H       244        0    0.0000
   1470 H         526.0383   13.9717   50.2557 H       244        0    0.0000
   1471 C         527.3921   13.9277   51.9690 C.3     245        0    0.0000
   1472 C         528.7590   14.2273   51.3437 C.3     245        0    0.0000
   1473 H         526.9265   14.8574   52.3185 H       245        0    0.0000
   1474 H         527.5141   13.2858   52.8503 H       245        0    0.0000
   1475 H         528.6919   14.1752   50.2500 H       245        0    0.0000
   1476 H         529.0703   15.2495   51.5919 H       245        0    0.0000
   1477 C         529.8662   13.2298   51.8301 C.3     246        0    0.0000
   1478 C         530.7615   12.7508   50.6821 C.3     246        0    0.0000
   1479 H         530.4730   13.7229   52.5997 H       246        0    0.0000
   1480 H         529.3820   12.3718   52.3126 H       246        0    0.0000
   1481 H         531.6581   12.2621   51.0830 H       246        0    0.0000
   1482 H         530.2342   11.9985   50.0825 H       246        0    0.0000
   1483 C         531.2037   13.9258   49.7433 C.3     247        0    0.0000
   1484 C         532.0677   13.4413   48.5739 C.3     247        0    0.0000
   1485 H         530.3073   14.4321   49.3643 H       247        0    0.0000
   1486 H         531.7552   14.6648   50.3377 H       247        0    0.0000
   1487 H         532.8527   12.7679   48.9398 H       247        0    0.0000
   1488 H         531.4576   12.8611   47.8705 H       247        0    0.0000
   1489 C         532.7400   14.6276   47.8004 C.3     248        0    0.0000
   1490 C         534.0380   14.2052   47.1034 C.3     248        0    0.0000
   1491 H         532.0273   15.0182   47.0635 H       248        0    0.0000
   1492 H         532.9405   15.4421   48.5074 H       248        0    0.0000
   1493 H         534.7304   13.7658   47.8321 H       248        0    0.0000
   1494 H         533.8292   13.4273   46.3585 H       248        0    0.0000
   1495 C         534.7490   15.4078   46.3924 C.3     249        0    0.0000
   1496 C         536.0572   14.9893   45.7121 C.3     249        0    0.0000
   1497 H         534.0618   15.8383   45.6535 H       249        0    0.0000
   1498 H         534.9450   16.1916   47.1345 H       249        0    0.0000
   1499 H         536.5922   14.2653   46.3390 H       249        0    0.0000
   1500 H         535.8424   14.4851   44.7618 H       249        0    0.0000
   1501 C         536.9996   16.2109   45.4344 C.3     250        0    0.0000
   1502 C         538.3866   15.7758   44.9486 C.3     250        0    0.0000
   1503 H         536.5261   16.8602   44.6876 H       250        0    0.0000
   1504 H         537.0915   16.8027   46.3535 H       250        0    0.0000
   1505 H         538.8459   15.0989   45.6796 H       250        0    0.0000
   1506 H         538.2975   15.2134   44.0109 H       250        0    0.0000
   1507 C         539.3445   16.9949   44.7174 C.3     251        0    0.0000
   1508 C         540.4387   16.6872   43.6891 C.3     251        0    0.0000
   1509 H         538.7490   17.8549   44.3869 H       251        0    0.0000
   1510 H         539.7977   17.2754   45.6763 H       251        0    0.0000
   1511 H         540.0233   16.0964   42.8633 H       251        0    0.0000
   1512 H         540.8160   17.6194   43.2509 H       251        0    0.0000
   1513 C         541.6407   15.9015   44.3178 C.3     252        0    0.0000
   1514 C         542.6512   15.4428   43.2607 C.3     252        0    0.0000
   1515 H         542.1351   16.5440   45.0570 H       252        0    0.0000
   1516 H         541.2493   15.0350   44.8651 H       252        0    0.0000
   1517 H         543.1075   14.4923   43.5640 H       252        0    0.0000
   1518 H         542.1406   15.2572   42.3076 H       252        0    0.0000
   1519 C         543.7877   16.4973   43.0281 C.3     253        0    0.0000
   1520 C         544.5345   16.2651   41.7099 C.3     253        0    0.0000
   1521 H         543.3459   17.5013   43.0383 H       253        0    0.0000
   1522 H         544.4890   16.4531   43.8706 H       253        0    0.0000
   1523 H         544.8995   15.2317   41.6614 H       253        0    0.0000
   1524 H         543.8511   16.3980   40.8620 H       253        0    0.0000
   1525 C         545.7505   17.2392   41.5364 C.3     254        0    0.0000
   1526 C         546.2598   17.2808   40.0914 C.3     254        0    0.0000
   1527 H         545.4476   18.2435   41.8576 H       254        0    0.0000
   1528 H         546.5562   16.9225   42.2103 H       254        0    0.0000
   1529 H         545.9316   16.3843   39.5510 H       254        0    0.0000
   1530 H         545.8285   18.1414   39.5652 H       254        0    0.0000
   1531 C         547.8228   17.3732   40.0149 C.3     255        0    0.0000
   1532 C         548.3147   17.7437   38.6114 C.3     255        0    0.0000
   1533 H         548.1691   18.1168   40.7434 H       255        0    0.0000
   1534 H         548.2493   16.4099   40.3209 H       255        0    0.0000
   1535 H         547.9218   17.0318   37.8750 H       255        0    0.0000
   1536 H         547.9336   18.7326   38.3281 H       255        0    0.0000
   1537 C         549.8794   17.7586   38.5150 C.3     256        0    0.0000
   1538 C         550.3745   18.3728   37.2009 C.3     256        0    0.0000
   1539 H         550.2808   18.3203   39.3675 H       256        0    0.0000
   1540 H         550.2495   16.7305   38.6127 H       256        0    0.0000
   1541 H         549.6673   18.1510   36.3921 H       256        0    0.0000
   1542 H         550.4192   19.4653   37.2896 H       256        0    0.0000
   1543 C         551.7916   17.8405   36.7933 C.3     257        0    0.0000
   1544 C         552.6029   18.8840   36.0174 C.3     257        0    0.0000
   1545 H         552.3317   17.5425   37.7004 H       257        0    0.0000
   1546 H         551.6681   16.9339   36.1880 H       257        0    0.0000
   1547 H         552.0574   19.1905   35.1163 H       257        0    0.0000
   1548 H         552.7362   19.7862   36.6271 H       257        0    0.0000
   1549 C         554.0138   18.3461   35.5957 C.3     258        0    0.0000
   1550 C         554.8367   19.3996   34.8460 C.3     258        0    0.0000
   1551 H         554.5508   18.0192   36.4947 H       258        0    0.0000
   1552 H         553.8799   17.4566   34.9677 H       258        0    0.0000
   1553 H         554.1758   20.0324   34.2408 H       258        0    0.0000
   1554 H         555.3399   20.0625   35.5608 H       258        0    0.0000
   1555 C         555.9155   18.7545   33.9092 C.3     259        0    0.0000
   1556 C         556.9728   19.7678   33.4570 C.3     259        0    0.0000
   1557 H         556.3945   17.9233   34.4414 H       259        0    0.0000
   1558 H         555.4122   18.3212   33.0361 H       259        0    0.0000
   1559 H         556.5137   20.5286   32.8135 H       259        0    0.0000
   1560 H         557.3833   20.2964   34.3262 H       259        0    0.0000
   1561 C         558.1505   19.0892   32.6759 C.3     260        0    0.0000
   1562 C         559.2601   20.0842   32.3187 C.3     260        0    0.0000
   1563 H         558.5579   18.2750   33.2880 H       260        0    0.0000
   1564 H         557.7507   18.6282   31.7642 H       260        0    0.0000
   1565 H         558.9118   20.7718   31.5380 H       260        0    0.0000
   1566 H         559.5092   20.6994   33.1922 H       260        0    0.0000
   1567 C         560.5614   19.3680   31.8174 C.3     261        0    0.0000
   1568 C         561.3963   20.2608   30.8927 C.3     261        0    0.0000
   1569 H         561.1572   19.0670   32.6881 H       261        0    0.0000
   1570 H         560.2786   18.4457   31.2951 H       261        0    0.0000
   1571 H         561.1721   20.0298   29.8439 H       261        0    0.0000
   1572 H         561.1313   21.3141   31.0469 H       261        0    0.0000
   1573 C         562.9360   20.0871   31.1303 C.3     262        0    0.0000
   1574 C         563.7686   21.0365   30.2618 C.3     262        0    0.0000
   1575 H         563.1519   20.2615   32.1917 H       262        0    0.0000
   1576 H         563.2111   19.0461   30.9199 H       262        0    0.0000
   1577 H         563.2100   21.9619   30.0742 H       262        0    0.0000
   1578 H         564.6855   21.3239   30.7910 H       262        0    0.0000
   1579 C         564.1593   20.3945   28.8861 C.3     263        0    0.0000
   1580 C         564.7399   21.4228   27.9091 C.3     263        0    0.0000
   1581 H         564.8863   19.5924   29.0640 H       263        0    0.0000
   1582 H         563.2698   19.9224   28.4507 H       263        0    0.0000
   1583 H         564.3317   21.2589   26.9040 H       263        0    0.0000
   1584 H         564.4429   22.4356   28.2085 H       263        0    0.0000
   1585 C         566.3044   21.3558   27.8362 C.3     264        0    0.0000
   1586 C         566.9012   22.5387   27.0658 C.3     264        0    0.0000
   1587 H         566.7053   21.3312   28.8571 H       264        0    0.0000
   1588 H         566.5960   20.4113   27.3604 H       264        0    0.0000
   1589 H         566.2168   22.8513   26.2673 H       264        0    0.0000
   1590 H         567.0206   23.4009   27.7337 H       264        0    0.0000
   1591 C         568.2929   22.1937   26.4322 C.3     265        0    0.0000
   1592 C         569.2374   23.4008   26.4122 C.3     265        0    0.0000
   1593 H         568.7457   21.3712   26.9996 H       265        0    0.0000
   1594 H         568.1348   21.8230   25.4119 H       265        0    0.0000
   1595 H         568.8613   24.1610   25.7164 H       265        0    0.0000
   1596 H         569.2697   23.8694   27.4036 H       265        0    0.0000
   1597 C         570.6953   23.0075   25.9914 C.3     266        0    0.0000
   1598 C         571.1558   23.7482   24.7310 C.3     266        0    0.0000
   1599 H         571.3747   23.2249   26.8247 H       266        0    0.0000
   1600 H         570.7355   21.9237   25.8266 H       266        0    0.0000
   1601 H         570.2880   24.0273   24.1206 H       266        0    0.0000
   1602 H         571.6605   24.6823   25.0069 H       266        0    0.0000
   1603 C         572.1312   22.8857   23.8580 C.3     267        0    0.0000
   1604 C         573.2148   23.7359   23.1856 C.3     267        0    0.0000
   1605 H         572.5939   22.1217   24.4950 H       267        0    0.0000
   1606 H         571.5472   22.3512   23.0986 H       267        0    0.0000
   1607 H         573.3594   23.4092   22.1484 H       267        0    0.0000
   1608 H         572.8976   24.7853   23.1441 H       267        0    0.0000
   1609 C         574.5876   23.6522   23.9378 C.3     268        0    0.0000
   1610 C         575.6812   24.4716   23.2437 C.3     268        0    0.0000
   1611 H         574.4490   24.0057   24.9671 H       268        0    0.0000
   1612 H         574.8908   22.6000   24.0042 H       268        0    0.0000
   1613 H         575.4809   25.5436   23.3628 H       268        0    0.0000
   1614 H         576.6526   24.2782   23.7154 H       268        0    0.0000
   1615 C         575.7881   24.1444   21.7143 C.3     269        0    0.0000
   1616 C         576.5883   25.2037   20.9484 C.3     269        0    0.0000
   1617 H         576.2570   23.1599   21.5951 H       269        0    0.0000
   1618 H         574.7761   24.0639   21.2983 H       269        0    0.0000
   1619 H         576.1286   26.1910   21.0807 H       269        0    0.0000
   1620 H         577.6054   25.2728   21.3538 H       269        0    0.0000
   1621 C         576.6759   24.8886   19.4152 C.3     270        0    0.0000
   1622 C         578.0355   25.2716   18.8201 C.3     270        0    0.0000
   1623 H         576.4865   23.8188   19.2626 H       270        0    0.0000
   1624 H         575.8732   25.4277   18.8970 H       270        0    0.0000
   1625 H         578.0146   25.1563   17.7294 H       270        0    0.0000
   1626 H         578.2497   26.3286   19.0212 H       270        0    0.0000
   1627 C         579.2036   24.4005   19.3982 C.3     271        0    0.0000
   1628 C         580.5776   24.8760   18.9134 C.3     271        0    0.0000
   1629 H         579.1596   24.4321   20.4939 H       271        0    0.0000
   1630 H         579.0429   23.3552   19.1065 H       271        0    0.0000
   1631 H         581.2307   24.0140   18.7292 H       271        0    0.0000
   1632 H         580.4769   25.4048   17.9574 H       271        0    0.0000
   1633 C         581.2755   25.8271   19.9458 C.3     272        0    0.0000
   1634 C         582.2679   26.7838   19.2757 C.3     272        0    0.0000
   1635 H         580.5045   26.3974   20.4785 H       272        0    0.0000
   1636 H         581.7909   25.2162   20.6971 H       272        0    0.0000
   1637 H         581.7576   27.7089   18.9803 H       272        0    0.0000
   1638 H         583.0527   27.0703   19.9868 H       272        0    0.0000
   1639 C         582.9404   26.1508   18.0090 C.3     273        0    0.0000
   1640 C         583.6870   27.1912   17.1667 C.3     273        0    0.0000
   1641 H         583.6314   25.3625   18.3322 H       273        0    0.0000
   1642 H         582.1661   25.6627   17.4043 H       273        0    0.0000
   1643 H         583.1965   28.1686   17.2548 H       273        0    0.0000
   1644 H         584.7095   27.3168   17.5437 H       273        0    0.0000
   1645 C         583.7521   26.7933   15.6519 C.3     274        0    0.0000
   1646 C         584.9743   27.3911   14.9463 C.3     274        0    0.0000
   1647 H         583.7707   25.6991   15.5741 H       274        0    0.0000
   1648 H         582.8315   27.1285   15.1583 H       274        0    0.0000
   1649 H         584.6697   27.8705   14.0077 H       274        0    0.0000
   1650 H         585.4222   28.1750   15.5695 H       274        0    0.0000
   1651 C         586.0657   26.3109   14.6310 C.3     275        0    0.0000
   1652 C         587.3726   26.9348   14.1288 C.3     275        0    0.0000
   1653 H         586.2537   25.7230   15.5380 H       275        0    0.0000
   1654 H         585.6686   25.6152   13.8814 H       275        0    0.0000
   1655 H         588.1440   26.8683   14.9059 H       275        0    0.0000
   1656 H         587.7482   26.3752   13.2632 H       275        0    0.0000
   1657 C         587.1948   28.4378   13.7205 C.3     276        0    0.0000
   1658 C         588.5232   29.0944   13.3290 C.3     276        0    0.0000
   1659 H         586.4859   28.4959   12.8853 H       276        0    0.0000
   1660 H         586.7396   28.9804   14.5584 H       276        0    0.0000
   1661 H         588.3685   30.1598   13.1181 H       276        0    0.0000
   1662 H         589.2313   29.0384   14.1649 H       276        0    0.0000
   1663 C         589.1717   28.4194   12.0714 C.3     277        0    0.0000
   1664 C         590.4709   29.1119   11.6455 C.3     277        0    0.0000
   1665 H         589.3649   27.3634   12.2970 H       277        0    0.0000
   1666 H         588.4478   28.4382   11.2472 H       277        0    0.0000
   1667 H         590.3782   30.1975   11.7743 H       277        0    0.0000
   1668 H         591.2983   28.7880   12.2890 H       277        0    0.0000
   1669 C         590.8435   28.8102   10.1530 C.3     278        0    0.0000
   1670 C         592.2828   29.2182    9.8197 C.3     278        0    0.0000
   1671 H         590.7026   27.7389    9.9630 H       278        0    0.0000
   1672 H         590.1409   29.3412    9.4989 H       278        0    0.0000
   1673 H         592.3068   29.7746    8.8745 H       278        0    0.0000
   1674 H         592.6710   29.8931   10.5925 H       278        0    0.0000
   1675 C         593.2389   27.9814    9.7024 C.3     279        0    0.0000
   1676 C         594.6334   28.3708    9.1996 C.3     279        0    0.0000
   1677 H         593.3145   27.4985   10.6846 H       279        0    0.0000
   1678 H         592.7859   27.2474    9.0245 H       279        0    0.0000
   1679 H         595.3275   27.5309    9.3277 H       279        0    0.0000
   1680 H         594.5984   28.5894    8.1251 H       279        0    0.0000
   1681 C         595.2083   29.6206    9.9510 C.3     280        0    0.0000
   1682 C         596.4691   30.1741    9.2776 C.3     280        0    0.0000
   1683 H         594.4330   30.3957    9.9927 H       280        0    0.0000
   1684 H         595.4286   29.3392   10.9882 H       280        0    0.0000
   1685 H         597.2161   30.4375   10.0366 H       280        0    0.0000
   1686 H         596.9241   29.4049    8.6413 H       280        0    0.0000
   1687 C         596.1687   31.4403    8.4035 C.3     281        0    0.0000
   1688 C         597.1659   31.6001    7.2506 C.3     281        0    0.0000
   1689 H         595.1476   31.3640    8.0098 H       281        0    0.0000
   1690 H         596.1926   32.3282    9.0473 H       281        0    0.0000
   1691 H         596.8107   31.0542    6.3678 H       281        0    0.0000
   1692 H         597.2391   32.6553    6.9601 H       281        0    0.0000
   1693 C         598.5960   31.0787    7.6255 C.3     282        0    0.0000
   1694 C         599.5687   31.1500    6.4432 C.3     282        0    0.0000
   1695 H         598.9799   31.6720    8.4647 H       282        0    0.0000
   1696 H         598.5131   30.0447    7.9826 H       282        0    0.0000
   1697 H         599.4889   30.2404    5.8351 H       282        0    0.0000
   1698 H         599.3049   31.9904    5.7892 H       282        0    0.0000
   1699 C         601.0565   31.3187    6.9073 C.3     283        0    0.0000
   1700 C         602.0373   31.3051    5.7296 C.3     283        0    0.0000
   1701 H         601.1491   32.2600    7.4631 H       283        0    0.0000
   1702 H         601.3013   30.5125    7.6099 H       283        0    0.0000
   1703 H         602.8317   30.5703    5.9100 H       283        0    0.0000
   1704 H         601.5210   30.9925    4.8136 H       283        0    0.0000
   1705 C         602.6928   32.7083    5.4863 C.3     284        0    0.0000
   1706 C         603.7476   32.6718    4.3748 C.3     284        0    0.0000
   1707 H         601.9044   33.4278    5.2331 H       284        0    0.0000
   1708 H         603.1459   33.0543    6.4236 H       284        0    0.0000
   1709 H         604.6254   33.2598    4.6698 H       284        0    0.0000
   1710 H         604.0952   31.6428    4.2198 H       284        0    0.0000
   1711 C         603.1988   33.2298    3.0165 C.3     285        0    0.0000
   1712 C         604.3069   33.4127    1.9736 C.3     285        0    0.0000
   1713 H         602.4333   32.5425    2.6353 H       285        0    0.0000
   1714 H         602.6973   34.1872    3.2043 H       285        0    0.0000
   1715 H         603.8676   33.6300    0.9921 H       285        0    0.0000
   1716 H         604.9324   34.2748    2.2365 H       285        0    0.0000
   1717 C         605.2205   32.1449    1.8487 C.3     286        0    0.0000
   1718 C         606.5880   32.4722    1.2386 C.3     286        0    0.0000
   1719 H         605.3491   31.7023    2.8442 H       286        0    0.0000
   1720 H         604.7044   31.3962    1.2352 H       286        0    0.0000
   1721 H         606.9606   31.6126    0.6680 H       286        0    0.0000
   1722 H         606.4941   33.3042    0.5296 H       286        0    0.0000
   1723 C         607.6486   32.8538    2.3280 C.3     287        0    0.0000
   1724 C         608.9537   33.3706    1.7122 C.3     287        0    0.0000
   1725 H         607.2175   33.6152    2.9898 H       287        0    0.0000
   1726 H         607.8492   31.9728    2.9501 H       287        0    0.0000
   1727 H         608.8027   34.3759    1.3000 H       287        0    0.0000
   1728 H         609.7253   33.4602    2.4869 H       287        0    0.0000
   1729 C         609.4861   32.4326    0.5747 C.3     288        0    0.0000
   1730 C         610.1006   33.2203   -0.5877 C.3     288        0    0.0000
   1731 H         610.2304   31.7481    1.0002 H       288        0    0.0000
   1732 H         608.6579   31.8114    0.2120 H       288        0    0.0000
   1733 H         610.0663   32.6225   -1.5069 H       288        0    0.0000
   1734 H         609.5135   34.1270   -0.7795 H       288        0    0.0000
   1735 C         611.5873   33.6308   -0.3070 C.3     289        0    0.0000
   1736 C         612.1859   34.4610   -1.4478 C.3     289        0    0.0000
   1737 H         611.6264   34.1977    0.6315 H       289        0    0.0000
   1738 H         612.1817   32.7220   -0.1510 H       289        0    0.0000
   1739 H         612.2645   33.8507   -2.3560 H       289        0    0.0000
   1740 H         611.5233   35.3014   -1.6893 H       289        0    0.0000
   1741 C         613.6055   35.0229   -1.0921 C.3     290        0    0.0000
   1742 C         614.3363   35.5750   -2.3210 C.3     290        0    0.0000
   1743 H         613.4951   35.8094   -0.3353 H       290        0    0.0000
   1744 H         614.1971   34.2225   -0.6307 H       290        0    0.0000
   1745 H         613.6354   35.6841   -3.1579 H       290        0    0.0000
   1746 H         614.7292   36.5766   -2.1065 H       290        0    0.0000
   1747 C         615.5214   34.6531   -2.7714 C.3     291        0    0.0000
   1748 C         616.3173   35.2565   -3.9340 C.3     291        0    0.0000
   1749 H         616.1820   34.4813   -1.9125 H       291        0    0.0000
   1750 H         615.1183   33.6743   -3.0595 H       291        0    0.0000
   1751 H         615.7421   35.1774   -4.8648 H       291        0    0.0000
   1752 H         616.4871   36.3260   -3.7586 H       291        0    0.0000
   1753 C         617.7028   34.5511   -4.1349 C.3     292        0    0.0000
   1754 C         618.6014   35.3060   -5.1207 C.3     292        0    0.0000
   1755 H         618.2008   34.4662   -3.1611 H       292        0    0.0000
   1756 H         617.5303   33.5279   -4.4909 H       292        0    0.0000
   1757 H         618.2877   35.0976   -6.1510 H       292        0    0.0000
   1758 H         618.4969   36.3880   -4.9722 H       292        0    0.0000
   1759 C         620.1122   34.9181   -4.9643 C.3     293        0    0.0000
   1760 C         621.0309   35.8080   -5.8088 C.3     293        0    0.0000
   1761 H         620.3881   34.9907   -3.9049 H       293        0    0.0000
   1762 H         620.2389   33.8669   -5.2515 H       293        0    0.0000
   1763 H         620.5641   36.7882   -5.9662 H       293        0    0.0000
   1764 H         621.9725   35.9895   -5.2758 H       293        0    0.0000
   1765 C         621.3547   35.1724   -7.2047 C.3     294        0    0.0000
   1766 C         622.0186   36.1720   -8.1582 C.3     294        0    0.0000
   1767 H         622.0087   34.3044   -7.0548 H       294        0    0.0000
   1768 H         620.4242   34.7935   -7.6451 H       294        0    0.0000
   1769 H         622.4956   36.9775   -7.5862 H       294        0    0.0000
   1770 H         622.8143   35.6766   -8.7282 H       294        0    0.0000
   1771 C         620.9950   36.8038   -9.1634 C.3     295        0    0.0000
   1772 C         621.3188   38.2684   -9.4785 C.3     295        0    0.0000
   1773 H         620.9948   36.2115  -10.0869 H       295        0    0.0000
   1774 H         619.9868   36.7246   -8.7381 H       295        0    0.0000
   1775 H         620.8091   38.5765  -10.3999 H       295        0    0.0000
   1776 H         620.9424   38.9175   -8.6782 H       295        0    0.0000
   1777 C         622.8580   38.5138   -9.6462 C.3     296        0    0.0000
   1778 C         623.2120   39.0549  -11.0358 C.3     296        0    0.0000
   1779 H         623.1902   39.2173   -8.8728 H       296        0    0.0000
   1780 H         623.3883   37.5710   -9.4634 H       296        0    0.0000
   1781 H         623.0424   38.2814  -11.7950 H       296        0    0.0000
   1782 H         622.5549   39.8958  -11.2906 H       296        0    0.0000
   1783 C         624.7022   39.5330  -11.1253 C.3     297        0    0.0000
   1784 C         625.5726   38.5716  -11.9423 C.3     297        0    0.0000
   1785 H         624.7261   40.5344  -11.5727 H       297        0    0.0000
   1786 H         625.1033   39.6323  -10.1091 H       297        0    0.0000
   1787 H         624.9437   37.8142  -12.4265 H       297        0    0.0000
   1788 H         626.0836   39.1170  -12.7453 H       297        0    0.0000
   1789 C         626.6471   37.8474  -11.0600 C.3     298        0    0.0000
   1790 C         628.0740   38.0978  -11.5603 C.3     298        0    0.0000
   1791 H         626.5457   38.1936  -10.0239 H       298        0    0.0000
   1792 H         626.4337   36.7714  -11.0549 H       298        0    0.0000
   1793 H         628.7992   37.6573  -10.8648 H       298        0    0.0000
   1794 H         628.2254   37.6037  -12.5280 H       298        0    0.0000
   1795 C         628.3889   39.6253  -11.7181 C.3     299        0    0.0000
   1796 C         629.5519   39.8821  -12.6828 C.3     299        0    0.0000
   1797 H         627.4859   40.1377  -12.0727 H       299        0    0.0000
   1798 H         628.6204   40.0425  -10.7302 H       299        0    0.0000
   1799 H         629.7582   40.9578  -12.7453 H       299        0    0.0000
   1800 H         630.4659   39.4076  -12.3049 H       299        0    0.0000
   1801 C         629.2593   39.3392  -14.1240 C.3     300        0    0.0000
   1802 C         630.4754   39.4617  -15.0488 C.3     300        0    0.0000
   1803 H         628.9473   38.2901  -14.0501 H       300        0    0.0000
   1804 H         628.4099   39.8917  -14.5444 H       300        0    0.0000
   1805 H         630.2563   39.0031  -16.0211 H       300        0    0.0000
   1806 H         630.6963   40.5187  -15.2418 H       300        0    0.0000
   1807 C         631.7519   38.7807  -14.4452 C.3     301        0    0.0000
   1808 C         633.0447   39.3025  -15.0820 C.3     301        0    0.0000
   1809 H         631.7681   38.9567  -13.3625 H       301        0    0.0000
   1810 H         631.6741   37.6956  -14.5868 H       301        0    0.0000
   1811 H         633.9127   38.8017  -14.6353 H       301        0    0.0000
   1812 H         633.0598   39.0637  -16.1526 H       301        0    0.0000
   1813 C         633.2099   40.8515  -14.9073 C.3     302        0    0.0000
   1814 C         634.2074   41.4458  -15.9078 C.3     302        0    0.0000
   1815 H         632.2287   41.3274  -15.0266 H       302        0    0.0000
   1816 H         633.5378   41.0586  -13.8811 H       302        0    0.0000
   1817 H         634.3093   42.5254  -15.7411 H       302        0    0.0000
   1818 H         635.2013   41.0079  -15.7532 H       302        0    0.0000
   1819 C         633.7739   41.2028  -17.3945 C.3     303        0    0.0000
   1820 C         634.8937   41.5329  -18.3875 C.3     303        0    0.0000
   1821 H         633.4682   40.1552  -17.5070 H       303        0    0.0000
   1822 H         632.8885   41.8141  -17.6092 H       303        0    0.0000
   1823 H         634.5526   41.3494  -19.4139 H       303        0    0.0000
   1824 H         635.1490   42.5981  -18.3261 H       303        0    0.0000
   1825 C         636.1877   40.6874  -18.1263 C.3     304        0    0.0000
   1826 C         637.4418   41.3501  -18.7068 C.3     304        0    0.0000
   1827 H         636.3042   40.5444  -17.0448 H       304        0    0.0000
   1828 H         636.0527   39.6902  -18.5632 H       304        0    0.0000
   1829 H         637.6052   41.0087  -19.7366 H       304        0    0.0000
   1830 H         637.3052   42.4376  -18.7534 H       304        0    0.0000
   1831 C         638.7244   41.0376  -17.8614 C.3     305        0    0.0000
   1832 C         639.9487   41.8172  -18.3536 C.3     305        0    0.0000
   1833 H         638.5225   41.2788  -16.8104 H       305        0    0.0000
   1834 H         638.9225   39.9595  -17.9048 H       305        0    0.0000
   1835 H         639.6409   42.7979  -18.7371 H       305        0    0.0000
   1836 H         640.6347   42.0066  -17.5188 H       305        0    0.0000
   1837 C         640.7245   41.0543  -19.4821 C.3     306        0    0.0000
   1838 C         641.6341   41.9844  -20.2925 C.3     306        0    0.0000
   1839 H         641.3179   40.2533  -19.0240 H       306        0    0.0000
   1840 H         639.9975   40.5682  -20.1445 H       306        0    0.0000
   1841 H         641.3068   43.0251  -20.1769 H       306        0    0.0000
   1842 H         642.6611   41.9329  -19.9102 H       306        0    0.0000
   1843 C         641.6442   41.6243  -21.8182 C.3     307        0    0.0000
   1844 C         642.5397   42.5657  -22.6312 C.3     307        0    0.0000
   1845 H         641.9842   40.5879  -21.9347 H       307        0    0.0000
   1846 H         640.6155   41.6630  -22.1974 H       307        0    0.0000
   1847 H         642.5266   42.2766  -23.6895 H       307        0    0.0000
   1848 H         642.1525   43.5908  -22.5799 H       307        0    0.0000
   1849 C         644.0231   42.5598  -22.1242 C.3     308        0    0.0000
   1850 C         644.9045   43.5484  -22.8956 C.3     308        0    0.0000
   1851 H         644.0320   42.8032  -21.0545 H       308        0    0.0000
   1852 H         644.4252   41.5436  -22.2195 H       308        0    0.0000
   1853 H         645.0385   43.2056  -23.9290 H       308        0    0.0000
   1854 H         644.4130   44.5276  -22.9496 H       308        0    0.0000
   1855 C         646.3151   43.7268  -22.2354 C.3     309        0    0.0000
   1856 C         647.2902   44.4838  -23.1439 C.3     309        0    0.0000
   1857 H         646.1955   44.2607  -21.2845 H       309        0    0.0000
   1858 H         646.7194   42.7365  -21.9920 H       309        0    0.0000
   1859 H         646.7453   44.9520  -23.9730 H       309        0    0.0000
   1860 H         647.7717   45.2958  -22.5850 H       309        0    0.0000
   1861 C         648.4011   43.5482  -23.7336 C.3     310        0    0.0000
   1862 C         649.1574   44.2044  -24.8940 C.3     310        0    0.0000
   1863 H         649.1006   43.2810  -22.9319 H       310        0    0.0000
   1864 H         647.9348   42.6136  -24.0693 H       310        0    0.0000
   1865 H         649.1535   45.2952  -24.7765 H       310        0    0.0000
   1866 H         650.2084   43.8902  -24.8836 H       310        0    0.0000
   1867 C         648.5361   43.8441  -26.2874 C.3     311        0    0.0000
   1868 C         649.0287   44.7749  -27.4011 C.3     311        0    0.0000
   1869 H         648.7872   42.8037  -26.5282 H       311        0    0.0000
   1870 H         647.4429   43.8948  -26.2109 H       311        0    0.0000
   1871 H         648.3951   44.6659  -28.2901 H       311        0    0.0000
   1872 H         648.9457   45.8209  -27.0814 H       311        0    0.0000
   1873 C         650.5163   44.4858  -27.8024 C.3     312        0    0.0000
   1874 C         651.3790   45.7525  -27.7860 C.3     312        0    0.0000
   1875 H         650.9301   43.7399  -27.1125 H       312        0    0.0000
   1876 H         650.5314   44.0333  -28.8017 H       312        0    0.0000
   1877 H         650.9261   46.5243  -28.4206 H       312        0    0.0000
   1878 H         651.4222   46.1651  -26.7703 H       312        0    0.0000
   1879 C         652.8406   45.4824  -28.2841 C.3     313        0    0.0000
   1880 C         653.3649   46.6073  -29.1835 C.3     313        0    0.0000
   1881 H         653.4951   45.3623  -27.4118 H       313        0    0.0000
   1882 H         652.8591   44.5284  -28.8256 H       313        0    0.0000
   1883 H         652.6074   46.8758  -29.9303 H       313        0    0.0000
   1884 H         653.5530   47.5088  -28.5873 H       313        0    0.0000
   1885 C         654.6867   46.2075  -29.9256 C.3     314        0    0.0000
   1886 C         655.6069   47.4102  -30.1615 C.3     314        0    0.0000
   1887 H         655.2080   45.4453  -29.3332 H       314        0    0.0000
   1888 H         654.4268   45.7391  -30.8830 H       314        0    0.0000
   1889 H         655.0710   48.1911  -30.7150 H       314        0    0.0000
   1890 H         655.9031   47.8512  -29.2016 H       314        0    0.0000
   1891 C         656.8992   47.0219  -30.9593 C.3     315        0    0.0000
   1892 C         657.5786   48.2407  -31.5934 C.3     315        0    0.0000
   1893 H         657.5952   46.5144  -30.2798 H       315        0    0.0000
   1894 H         656.6304   46.2948  -31.7356 H       315        0    0.0000
   1895 H         656.8992   48.7201  -32.3090 H       315        0    0.0000
   1896 H         657.8040   48.9888  -30.8232 H       315        0    0.0000
   1897 C         658.9073   47.8619  -32.3339 C.3     316        0    0.0000
   1898 C         659.2452   48.8452  -33.4600 C.3     316        0    0.0000
   1899 H         659.7241   47.8329  -31.6021 H       316        0    0.0000
   1900 H         658.8099   46.8465  -32.7378 H       316        0    0.0000
   1901 H         658.5942   48.6654  -34.3244 H       316        0    0.0000
   1902 H         659.0547   49.8741  -33.1306 H       316        0    0.0000
   1903 C         660.7394   48.7304  -33.9203 C.3     317        0    0.0000
   1904 C         661.0273   49.5666  -35.1722 C.3     317        0    0.0000
   1905 H         661.3889   49.0510  -33.0963 H       317        0    0.0000
   1906 H         660.9705   47.6752  -34.1115 H       317        0    0.0000
   1907 H         660.3040   49.3245  -35.9607 H       317        0    0.0000
   1908 H         660.9041   50.6335  -34.9485 H       317        0    0.0000
   1909 C         662.4753   49.3300  -35.7246 C.3     318        0    0.0000
   1910 C         663.3853   50.5440  -35.5074 C.3     318        0    0.0000
   1911 H         662.9017   48.4473  -35.2321 H       318        0    0.0000
   1912 H         662.4115   49.0942  -36.7941 H       318        0    0.0000
   1913 H         662.8463   51.4671  -35.7541 H       318        0    0.0000
   1914 H         663.6685   50.6175  -34.4500 H       318        0    0.0000
   1915 C         664.6885   50.4724  -36.3757 C.3     319        0    0.0000
   1916 C         665.9575   50.4361  -35.5168 C.3     319        0    0.0000
   1917 H         664.6401   49.5809  -37.0132 H       319        0    0.0000
   1918 H         664.7138   51.3392  -37.0476 H       319        0    0.0000
   1919 H         666.2761   51.4572  -35.2731 H       319        0    0.0000
   1920 H         665.7521   49.9341  -34.5633 H       319        0    0.0000
   1921 C         667.1388   49.6956  -36.2334 C.3     320        0    0.0000
   1922 C         667.9274   50.6241  -37.1635 C.3     320        0    0.0000
   1923 H         667.8049   49.2722  -35.4714 H       320        0    0.0000
   1924 H         666.7329   48.8498  -36.8022 H       320        0    0.0000
   1925 H         667.2968   50.9384  -38.0043 H       320        0    0.0000
   1926 H         668.2159   51.5368  -36.6275 H       320        0    0.0000
   1927 C         669.2199   49.9405  -37.7290 C.3     321        0    0.0000
   1928 C         669.5555   50.4162  -39.1469 C.3     321        0    0.0000
   1929 H         670.0572   50.1532  -37.0528 H       321        0    0.0000
   1930 H         669.0770   48.8528  -37.7211 H       321        0    0.0000
   1931 H         669.1230   49.7304  -39.8859 H       321        0    0.0000
   1932 H         669.1066   51.4003  -39.3296 H       321        0    0.0000
   1933 C         671.1011   50.5127  -39.3908 C.3     322        0    0.0000
   1934 C         671.4534   51.5181  -40.4926 C.3     322        0    0.0000
   1935 H         671.5903   50.7976  -38.4511 H       322        0    0.0000
   1936 H         671.4803   49.5175  -39.6544 H       322        0    0.0000
   1937 H         670.7892   51.3796  -41.3547 H       322        0    0.0000
   1938 H         671.2934   52.5420  -40.1328 H       322        0    0.0000
   1939 C         672.9395   51.3776  -40.9720 C.3     323        0    0.0000
   1940 C         673.2423   52.2566  -42.1905 C.3     323        0    0.0000
   1941 H         673.6054   51.6433  -40.1417 H       323        0    0.0000
   1942 H         673.1364   50.3248  -41.2094 H       323        0    0.0000
   1943 H         672.4557   52.1364  -42.9458 H       323        0    0.0000
   1944 H         673.2415   53.3147  -41.9005 H       323        0    0.0000
   1945 C         674.6258   51.9123  -42.8423 C.3     324        0    0.0000
   1946 C         675.5169   53.1491  -43.0011 C.3     324        0    0.0000
   1947 H         675.1314   51.1613  -42.2227 H       324        0    0.0000
   1948 H         674.4500   51.4473  -43.8202 H       324        0    0.0000
   1949 H         674.9906   53.9206  -43.5766 H       324        0    0.0000
   1950 H         675.7358   53.5838  -42.0179 H       324        0    0.0000
   1951 C         676.8702   52.8179  -43.7197 C.3     325        0    0.0000
   1952 C         677.5195   54.0614  -44.3372 C.3     325        0    0.0000
   1953 H         677.5527   52.3583  -42.9940 H       325        0    0.0000
   1954 H         676.6835   52.0661  -44.4964 H       325        0    0.0000
   1955 H         676.8468   54.5070  -45.0805 H       325        0    0.0000
   1956 H         677.6841   54.8227  -43.5647 H       325        0    0.0000
   1957 C         678.8896   53.7362  -45.0261 C.3     326        0    0.0000
   1958 C         679.2742   54.7833  -46.0772 C.3     326        0    0.0000
   1959 H         679.6672   53.6741  -44.2548 H       326        0    0.0000
   1960 H         678.8256   52.7439  -45.4896 H       326        0    0.0000
   1961 H         678.6102   54.7048  -46.9469 H       326        0    0.0000
   1962 H         679.1406   55.7928  -45.6689 H       326        0    0.0000
   1963 C         680.7578   54.6252  -46.5581 C.3     327        0    0.0000
   1964 C         681.1172   55.6177  -47.6693 C.3     327        0    0.0000
   1965 H         681.4250   54.7652  -45.6985 H       327        0    0.0000
   1966 H         680.9080   53.5967  -46.9092 H       327        0    0.0000
   1967 H         680.3812   55.5566  -48.4806 H       327        0    0.0000
   1968 H         681.0771   56.6442  -47.2843 H       327        0    0.0000
   1969 C         682.5448   55.3554  -48.2614 C.3     328        0    0.0000
   1970 C         683.3160   56.6553  -48.5156 C.3     328        0    0.0000
   1971 H         683.1036   54.7162  -47.5667 H       328        0    0.0000
   1972 H         682.4417   54.7903  -49.1960 H       328        0    0.0000
   1973 H         682.7184   57.3313  -49.1397 H       328        0    0.0000
   1974 H         683.4954   57.1777  -47.5678 H       328        0    0.0000
   1975 C         684.6927   56.4011  -49.2209 C.3     329        0    0.0000
   1976 C         685.7767   57.3758  -48.7475 C.3     329        0    0.0000
   1977 H         685.0046   55.3676  -49.0254 H       329        0    0.0000
   1978 H         684.5557   56.4889  -50.3059 H       329        0    0.0000
   1979 H         685.6562   58.3443  -49.2485 H       329        0    0.0000
   1980 H         685.6709   57.5622  -47.6716 H       329        0    0.0000
   1981 C         687.2224   56.8382  -49.0276 C.3     330        0    0.0000
   1982 C         687.6879   57.1404  -50.4562 C.3     330        0    0.0000
   1983 H         687.9133   57.2881  -48.3038 H       330        0    0.0000
   1984 H         687.2383   55.7561  -48.8477 H       330        0    0.0000
   1985 H         687.1144   56.5401  -51.1735 H       330        0    0.0000
   1986 H         687.4946   58.1923  -50.7002 H       330        0    0.0000
   1987 C         689.2145   56.8470  -50.6582 C.3     331        0    0.0000
   1988 C         689.5967   56.7523  -52.1395 C.3     331        0    0.0000
   1989 H         689.7946   57.6399  -50.1700 H       331        0    0.0000
   1990 H         689.4657   55.9109  -50.1444 H       331        0    0.0000
   1991 H         688.8132   56.2244  -52.6971 H       331        0    0.0000
   1992 H         689.6701   57.7570  -52.5740 H       331        0    0.0000
   1993 C         690.9594   56.0078  -52.3550 C.3     332        0    0.0000
   1994 C         691.9955   56.8866  -53.0642 C.3     332        0    0.0000
   1995 H         691.3441   55.6852  -51.3796 H       332        0    0.0000
   1996 H         690.7762   55.0969  -52.9383 H       332        0    0.0000
   1997 H         691.5097   57.4865  -53.8437 H       332        0    0.0000
   1998 H         692.4390   57.5941  -52.3527 H       332        0    0.0000
   1999 C         693.1428   56.0420  -53.7184 C.3     333        0    0.0000
   2000 C         694.0062   56.8752  -54.6721 C.3     333        0    0.0000
   2001 H         693.7658   55.6155  -52.9224 H       333        0    0.0000
   2002 H         692.6967   55.1964  -54.2564 H       333        0    0.0000
   2003 H         694.3117   56.2662  -55.5319 H       333        0    0.0000
   2004 H         693.4230   57.7141  -55.0715 H       333        0    0.0000
   2005 C         695.2897   57.4402  -53.9713 C.3     334        0    0.0000
   2006 C         695.6774   58.8258  -54.4994 C.3     334        0    0.0000
   2007 H         695.1110   57.4863  -52.8899 H       334        0    0.0000
   2008 H         696.1157   56.7346  -54.1243 H       334        0    0.0000
   2009 H         694.8134   59.3001  -54.9811 H       334        0    0.0000
   2010 H         695.9708   59.4771  -53.6669 H       334        0    0.0000
   2011 C         696.8572   58.7602  -55.5296 C.3     335        0    0.0000
   2012 C         696.7144   59.8033  -56.6434 C.3     335        0    0.0000
   2013 H         697.8030   58.9088  -54.9940 H       335        0    0.0000
   2014 H         696.8943   57.7521  -55.9608 H       335        0    0.0000
   2015 H         695.6719   59.8524  -56.9815 H       335        0    0.0000
   2016 H         696.9688   60.7994  -56.2607 H       335        0    0.0000
   2017 C         697.6306   59.4862  -57.8753 C.3     336        0    0.0000
   2018 C         698.9550   60.2561  -57.8276 C.3     336        0    0.0000
   2019 H         697.8239   58.4067  -57.9037 H       336        0    0.0000
   2020 H         697.0850   59.7329  -58.7946 H       336        0    0.0000
   2021 H         698.7964   61.2969  -58.1363 H       336        0    0.0000
   2022 H         699.3353   60.2871  -56.7990 H       336        0    0.0000
   2023 C         700.0479   59.6161  -58.7513 C.3     337        0    0.0000
   2024 C         701.2961   60.4975  -58.8709 C.3     337        0    0.0000
   2025 H         700.3193   58.6322  -58.3488 H       337        0    0.0000
   2026 H         699.6141   59.4417  -59.7438 H       337        0    0.0000
   2027 H         701.0117   61.5137  -59.1708 H       337        0    0.0000
   2028 H         701.7906   60.5836  -57.8955 H       337        0    0.0000
   2029 C         702.3246   59.9329  -59.9107 C.3     338        0    0.0000
   2030 C         703.6516   60.6995  -59.8902 C.3     338        0    0.0000
   2031 H         702.4999   58.8717  -59.6944 H       338        0    0.0000
   2032 H         701.8780   59.9808  -60.9116 H       338        0    0.0000
   2033 H         703.5079   61.7111  -60.2898 H       338        0    0.0000
   2034 H         704.0029   60.8158  -58.8574 H       338        0    0.0000
   2035 C         704.7664   59.9800  -60.7251 C.3     339        0    0.0000
   2036 C         705.8538   60.9502  -61.1999 C.3     339        0    0.0000
   2037 H         705.2115   59.1872  -60.1114 H       339        0    0.0000
   2038 H         704.2999   59.4869  -61.5869 H       339        0    0.0000
   2039 H         705.9283   61.7990  -60.5089 H       339        0    0.0000
   2040 H         706.8311   60.4521  -61.1936 H       339        0    0.0000
   2041 C         705.5742   61.4962  -62.6425 C.3     340        0    0.0000
   2042 C         706.6667   62.4586  -63.1212 C.3     340        0    0.0000
   2043 H         705.4922   60.6470  -63.3323 H       340        0    0.0000
   2044 H         704.6000   62.0007  -62.6470 H       340        0    0.0000
   2045 H         706.5224   62.6932  -64.1831 H       340        0    0.0000
   2046 H         706.5966   63.4082  -62.5765 H       340        0    0.0000
   2047 C         708.1058   61.8686  -62.9251 C.3     341        0    0.0000
   2048 C         709.1989   62.8356  -63.3935 C.3     341        0    0.0000
   2049 H         708.2472   61.6265  -61.8645 H       341        0    0.0000
   2050 H         708.1786   60.9231  -63.4765 H       341        0    0.0000
   2051 H         709.1140   63.0041  -64.4743 H       341        0    0.0000
   2052 H         709.0689   63.8124  -62.9112 H       341        0    0.0000
   2053 C         710.6388   62.3032  -63.0766 C.3     342        0    0.0000
   2054 C         711.7289   63.1297  -63.7678 C.3     342        0    0.0000
   2055 H         710.7893   62.3158  -61.9900 H       342        0    0.0000
   2056 H         710.7053   61.2545  -63.3917 H       342        0    0.0000
   2057 H         711.3055   64.0676  -64.1480 H       342        0    0.0000
   2058 H         712.5069   63.4054  -63.0451 H       342        0    0.0000
   2059 C         712.3955   62.3571  -64.9578 C.3     343        0    0.0000
   2060 C         713.3984   63.2258  -65.7251 C.3     343        0    0.0000
   2061 H         712.8959   61.4640  -64.5635 H       343        0    0.0000
   2062 H         711.6083   62.0039  -65.6353 H       343        0    0.0000
   2063 H         712.8660   63.9734  -66.3261 H       343        0    0.0000
   2064 H         714.0316   63.7802  -65.0213 H       343        0    0.0000
   2065 C         714.3170   62.3779  -66.6712 C.3     344        0    0.0000
   2066 C         715.3812   63.2335  -67.3672 C.3     344        0    0.0000
   2067 H         714.7968   61.5866  -66.0820 H       344        0    0.0000
   2068 H         713.6888   61.8775  -67.4184 H       344        0    0.0000
   2069 H         716.3818   62.9392  -67.0273 H       344        0    0.0000
   2070 H         715.3530   63.0613  -68.4503 H       344        0    0.0000
   2071 C         715.1847   64.7646  -67.0938 C.3     345        0    0.0000
   2072 C         716.2502   65.6201  -67.7880 C.3     345        0    0.0000
   2073 H         714.1846   65.0593  -67.4352 H       345        0    0.0000
   2074 H         715.2112   64.9366  -66.0106 H       345        0    0.0000
   2075 H         716.7090   65.0559  -68.6094 H       345        0    0.0000
   2076 H         715.7867   66.5079  -68.2358 H       345        0    0.0000
   2077 C         717.3772   66.0819  -66.8010 C.3     346        0    0.0000
   2078 C         718.7339   66.2326  -67.4980 C.3     346        0    0.0000
   2079 H         717.0801   67.0349  -66.3460 H       346        0    0.0000
   2080 H         717.4527   65.3530  -65.9846 H       346        0    0.0000
   2081 H         719.4537   66.7091  -66.8209 H       346        0    0.0000
   2082 H         719.1411   65.2447  -67.7462 H       346        0    0.0000
   2083 C         718.6358   67.0833  -68.8111 C.3     347        0    0.0000
   2084 C         719.8168   66.8325  -69.7553 C.3     347        0    0.0000
   2085 H         717.6923   66.8446  -69.3174 H       347        0    0.0000
   2086 H         718.5887   68.1456  -68.5415 H       347        0    0.0000
   2087 H         720.2576   65.8484  -69.5531 H       347        0    0.0000
   2088 H         719.4693   66.8143  -70.7957 H       347        0    0.0000
   2089 C         720.9326   67.9246  -69.6142 C.3     348        0    0.0000
   2090 C         722.2615   67.4809  -70.2357 C.3     348        0    0.0000
   2091 H         720.5845   68.8494  -70.0908 H       348        0    0.0000
   2092 H         721.0723   68.1520  -68.5501 H       348        0    0.0000
   2093 H         722.6592   66.6140  -69.6938 H       348        0    0.0000
   2094 H         722.1029   67.1590  -71.2723 H       348        0    0.0000
   2095 C         723.3353   68.6230  -70.2199 C.3     349        0    0.0000
   2096 C         724.4260   68.4094  -71.2753 C.3     349        0    0.0000
   2097 H         722.8325   69.5835  -70.3877 H       349        0    0.0000
   2098 H         723.7839   68.6727  -69.2200 H       349        0    0.0000
   2099 H         723.9700   68.1831  -72.2470 H       349        0    0.0000
   2100 H         725.0074   69.3303  -71.4070 H       349        0    0.0000
   2101 C         725.4034   67.2452  -70.8924 C.3     350        0    0.0000
   2102 C         726.3686   66.8988  -72.0315 C.3     350        0    0.0000
   2103 H         725.9670   67.5366  -69.9974 H       350        0    0.0000
   2104 H         724.8121   66.3626  -70.6189 H       350        0    0.0000
   2105 H         726.7134   65.8622  -71.9302 H       350        0    0.0000
   2106 H         725.8510   66.9657  -72.9965 H       350        0    0.0000
   2107 C         727.6173   67.8461  -72.0610 C.3     351        0    0.0000
   2108 C         728.2817   67.8886  -73.4415 C.3     351        0    0.0000
   2109 H         727.3034   68.8543  -71.7634 H       351        0    0.0000
   2110 H         728.3377   67.5051  -71.3072 H       351        0    0.0000
   2111 H         728.4736   66.8690  -73.7982 H       351        0    0.0000
   2112 H         727.6068   68.3553  -74.1696 H       351        0    0.0000
   2113 C         729.6341   68.6813  -73.4258 C.3     352        0    0.0000
   2114 C         730.4245   68.5074  -74.7274 C.3     352        0    0.0000
   2115 H         729.4194   69.7435  -73.2552 H       352        0    0.0000
   2116 H         730.2339   68.3402  -72.5730 H       352        0    0.0000
   2117 H         730.3950   67.4587  -75.0481 H       352        0    0.0000
   2118 H         729.9619   69.0953  -75.5298 H       352        0    0.0000
   2119 C         731.9214   68.9478  -74.5769 C.3     353        0    0.0000
   2120 C         732.5199   69.4340  -75.9014 C.3     353        0    0.0000
   2121 H         731.9822   69.7422  -73.8226 H       353        0    0.0000
   2122 H         732.5019   68.1011  -74.1902 H       353        0    0.0000
   2123 H         732.4288   68.6516  -76.6650 H       353        0    0.0000
   2124 H         731.9597   70.3018  -76.2713 H       353        0    0.0000
   2125 C         734.0303   69.8298  -75.7612 C.3     354        0    0.0000
   2126 C         734.7471   69.8744  -77.1152 C.3     354        0    0.0000
   2127 H         734.0952   70.8081  -75.2688 H       354        0    0.0000
   2128 H         734.5244   69.1096  -75.0975 H       354        0    0.0000
   2129 H         734.6718   68.8997  -77.6130 H       354        0    0.0000
   2130 H         734.2604   70.6035  -77.7747 H       354        0    0.0000
   2131 C         736.2617   70.2536  -76.9733 C.3     355        0    0.0000
   2132 C         736.8190   70.9040  -78.2443 C.3     355        0    0.0000
   2133 H         736.3774   70.9341  -76.1207 H       355        0    0.0000
   2134 H         736.8319   69.3477  -76.7332 H       355        0    0.0000
   2135 H         736.2475   70.5705  -79.1193 H       355        0    0.0000
   2136 H         736.7051   71.9938  -78.1902 H       355        0    0.0000
   2137 C         738.3328   70.5648  -78.4704 C.3     356        0    0.0000
   2138 C         739.0239   71.5776  -79.3901 C.3     356        0    0.0000
   2139 H         738.8377   70.5351  -77.4969 H       356        0    0.0000
   2140 H         738.4095   69.5566  -78.8961 H       356        0    0.0000
   2141 H         738.5409   71.5819  -80.3751 H       356        0    0.0000
   2142 H         738.9167   72.5903  -78.9823 H       356        0    0.0000
   2143 C         740.5490   71.2667  -79.5765 C.3     357        0    0.0000
   2144 C         741.2448   72.2920  -80.4785 C.3     357        0    0.0000
   2145 H         741.0289   71.2464  -78.5902 H       357        0    0.0000
   2146 H         740.6556   70.2600  -79.9994 H       357        0    0.0000
   2147 H         740.6907   72.4033  -81.4187 H       357        0    0.0000
   2148 H         741.2473   73.2772  -79.9958 H       357        0    0.0000
   2149 C         742.7230   71.8871  -80.8081 C.3     358        0    0.0000
   2150 C         743.5155   73.0403  -81.4334 C.3     358        0    0.0000
   2151 H         743.2119   71.5517  -79.8850 H       358        0    0.0000
   2152 H         742.7105   71.0267  -81.4886 H       358        0    0.0000
   2153 H         743.0234   73.3794  -82.3534 H       358        0    0.0000
   2154 H         743.5327   73.8987  -80.7505 H       358        0    0.0000
   2155 C         744.9914   72.6329  -81.7703 C.3     359        0    0.0000
   2156 C         745.7692   73.7705  -82.4410 C.3     359        0    0.0000
   2157 H         745.4943   72.3284  -80.8441 H       359        0    0.0000
   2158 H         744.9747   71.7521  -82.4240 H       359        0    0.0000
   2159 H         745.2615   74.0811  -83.3626 H       359        0    0.0000
   2160 H         745.7935   74.6484  -81.7836 H       359        0    0.0000
   2161 C         747.2413   73.3591  -82.7891 C.3     360        0    0.0000
   2162 C         748.0409   74.5185  -83.3937 C.3     360        0    0.0000
   2163 H         747.7327   72.9986  -81.8770 H       360        0    0.0000
   2164 H         747.2163   72.5143  -83.4885 H       360        0    0.0000
   2165 H         747.4092   75.0915  -84.0839 H       360        0    0.0000
   2166 H         748.3538   75.2121  -82.6034 H       360        0    0.0000
   2167 C         749.3130   74.0243  -84.1651 C.3     361        0    0.0000
   2168 C         750.3199   75.1538  -84.4085 C.3     361        0    0.0000
   2169 H         749.7841   73.2178  -83.5898 H       361        0    0.0000
   2170 H         748.9993   73.5876  -85.1213 H       361        0    0.0000
   2171 H         749.8795   75.9159  -85.0633 H       361        0    0.0000
   2172 H         750.5613   75.6531  -83.4619 H       361        0    0.0000
   2173 C         751.6486   74.6353  -85.0592 C.3     362        0    0.0000
   2174 C         752.7412   75.7098  -85.0838 C.3     362        0    0.0000
   2175 H         751.9967   73.7575  -84.5007 H       362        0    0.0000
   2176 H         751.4331   74.2944  -86.0794 H       362        0    0.0000
   2177 H         752.3547   76.6290  -85.5411 H       362        0    0.0000
   2178 H         753.0380   75.9681  -84.0598 H       362        0    0.0000
   2179 C         754.0120   75.2468  -85.8766 C.3     363        0    0.0000
   2180 C         754.8979   76.4259  -86.2935 C.3     363        0    0.0000
   2181 H         754.5836   74.5492  -85.2521 H       363        0    0.0000
   2182 H         753.6908   74.6858  -86.7629 H       363        0    0.0000
   2183 H         754.4246   76.9808  -87.1131 H       363        0    0.0000
   2184 H         755.0060   77.1290  -85.4583 H       363        0    0.0000
   2185 C         756.3238   75.9642  -86.7532 C.3     364        0    0.0000
   2186 C         757.2897   77.1423  -86.9211 C.3     364        0    0.0000
   2187 H         756.7203   75.2547  -86.0164 H       364        0    0.0000
   2188 H         756.2303   75.4167  -87.6992 H       364        0    0.0000
   2189 H         756.7607   78.0051  -87.3443 H       364        0    0.0000
   2190 H         757.6732   77.4568  -85.9425 H       364        0    0.0000
   2191 C         758.5027   76.7884  -87.8491 C.3     365        0    0.0000
   2192 C         759.3055   78.0296  -88.2542 C.3     365        0    0.0000
   2193 H         759.1516   76.0749  -87.3262 H       365        0    0.0000
   2194 H         758.1262   76.2756  -88.7428 H       365        0    0.0000
   2195 H         758.7010   78.6722  -88.9062 H       365        0    0.0000
   2196 H         759.5519   78.6246  -87.3661 H       365        0    0.0000
   2197 C         760.6342   77.6604  -88.9997 C.3     366        0    0.0000
   2198 C         761.7004   78.7528  -88.8619 C.3     366        0    0.0000
   2199 H         761.0131   76.7122  -88.5985 H       366        0    0.0000
   2200 H         760.4086   77.4864  -90.0591 H       366        0    0.0000
   2201 H         761.5209   79.5482  -89.5959 H       366        0    0.0000
   2202 H         761.6359   79.2185  -87.8707 H       366        0    0.0000
   2203 C         763.1515   78.1957  -89.0650 C.3     367        0    0.0000
   2204 C         763.9536   79.0198  -90.0783 C.3     367        0    0.0000
   2205 H         763.6658   78.1870  -88.0960 H       367        0    0.0000
   2206 H         763.0864   77.1519  -89.3965 H       367        0    0.0000
   2207 H         763.6085   78.8029  -91.0968 H       367        0    0.0000
   2208 H         763.7849   80.0906  -89.9099 H       367        0    0.0000
   2209 C         765.4921   78.7311  -89.9939 C.3     368        0    0.0000
   2210 C         766.3182   79.7475  -90.7897 C.3     368        0    0.0000
   2211 H         765.7964   78.7417  -88.9399 H       368        0    0.0000
   2212 H         765.6824   77.7171  -90.3667 H       368        0    0.0000
   2213 H         765.7899   80.0230  -91.7109 H       368        0    0.0000
   2214 H         766.4407   80.6700  -90.2089 H       368        0    0.0000
   2215 C         767.7363   79.1956  -91.1665 C.3     369        0    0.0000
   2216 C         768.5928   80.2405  -91.8900 C.3     369        0    0.0000
   2217 H         768.2413   78.8638  -90.2509 H       369        0    0.0000
   2218 H         767.6135   78.3071  -91.7982 H       369        0    0.0000
   2219 H         768.5309   80.0918  -92.9752 H       369        0    0.0000
   2220 H         768.2082   81.2478  -91.6876 H       369        0    0.0000
   2221 C         770.0981   80.1781  -91.4567 C.3     370        0    0.0000
   2222 C         770.9800   81.1207  -92.2830 C.3     370        0    0.0000
   2223 H         770.1703   80.4322  -90.3919 H       370        0    0.0000
   2224 H         770.4529   79.1450  -91.5588 H       370        0    0.0000
   2225 H         770.6678   81.1025  -93.3345 H       370        0    0.0000
   2226 H         770.8553   82.1537  -91.9352 H       370        0    0.0000
   2227 C         772.4982   80.7392  -92.1998 C.3     371        0    0.0000
   2228 C         773.3561   81.5540  -93.1740 C.3     371        0    0.0000
   2229 H         772.8462   80.8953  -91.1711 H       371        0    0.0000
   2230 H         772.6056   79.6678  -92.4095 H       371        0    0.0000
   2231 H         772.7576   81.8513  -94.0441 H       371        0    0.0000
   2232 H         773.6946   82.4802  -92.6932 H       371        0    0.0000
   2233 C         774.6100   80.7558  -93.6722 C.3     372        0    0.0000
   2234 C         775.7474   81.6807  -94.1194 C.3     372        0    0.0000
   2235 H         774.9550   80.0990  -92.8640 H       372        0    0.0000
   2236 H         774.3076   80.1036  -94.5008 H       372        0    0.0000
   2237 H         776.4156   81.8905  -93.2750 H       372        0    0.0000
   2238 H         776.3552   81.1856  -94.8868 H       372        0    0.0000
   2239 C         775.2171   83.0396  -94.6936 C.3     373        0    0.0000
   2240 C         776.3552   83.9935  -95.0729 C.3     373        0    0.0000
   2241 H         774.5917   82.8327  -95.5709 H       373        0    0.0000
   2242 H         774.5659   83.5093  -93.9461 H       373        0    0.0000
   2243 H         776.2357   84.3279  -96.1109 H       373        0    0.0000
   2244 H         776.3169   84.8929  -94.4458 H       373        0    0.0000
   2245 C         777.7657   83.3278  -94.9157 C.3     374        0    0.0000
   2246 C         778.8768   84.1609  -95.5641 C.3     374        0    0.0000
   2247 H         777.9742   83.1890  -93.8476 H       374        0    0.0000
   2248 H         777.7361   82.3267  -95.3636 H       374        0    0.0000
   2249 H         778.4753   84.7272  -96.4136 H       374        0    0.0000
   2250 H         779.2612   84.8976  -94.8479 H       374        0    0.0000
   2251 C         780.0684   83.2744  -96.0657 C.3     375        0    0.0000
   2252 C         781.4163   83.9952  -95.9528 C.3     375        0    0.0000
   2253 H         780.0885   82.3457  -95.4819 H       375        0    0.0000
   2254 H         779.8814   82.9874  -97.1078 H       375        0    0.0000
   2255 H         781.4972   84.4910  -94.9775 H       375        0    0.0000
   2256 H         782.2369   83.2690  -96.0062 H       375        0    0.0000
   2257 C         781.6142   85.0650  -97.0815 C.3     376        0    0.0000
   2258 C         783.0138   85.6891  -97.0513 C.3     376        0    0.0000
   2259 H         781.4349   84.5903  -98.0541 H       376        0    0.0000
   2260 H         780.8518   85.8455  -96.9665 H       376        0    0.0000
   2261 H         783.0271   86.6116  -97.6448 H       376        0    0.0000
   2262 H         783.2778   85.9712  -96.0245 H       376        0    0.0000
   2263 C         784.1104   84.7157  -97.6058 C.3     377        0    0.0000
   2264 C         785.5130   85.3316  -97.5553 C.3     377        0    0.0000
   2265 H         784.0862   83.7868  -97.0225 H       377        0    0.0000
   2266 H         783.8547   84.4463  -98.6380 H       377        0    0.0000
   2267 H         785.4740   86.3821  -97.8688 H       377        0    0.0000
   2268 H         785.8902   85.3241  -96.5251 H       377        0    0.0000
   2269 C         786.5304   84.5682  -98.4715 C.3     378        0    0.0000
   2270 C         787.9539   85.1227  -98.3467 C.3     378        0    0.0000
   2271 H         786.5166   83.5040  -98.2053 H       378        0    0.0000
   2272 H         786.1898   84.6370  -99.5121 H       378        0    0.0000
   2273 H         788.1299   85.4803  -97.3246 H       378        0    0.0000
   2274 H         788.6853   84.3264  -98.5322 H       378        0    0.0000
   2275 C         788.2230   86.2992  -99.3472 C.3     379        0    0.0000
   2276 C         789.3379   87.2317  -98.8608 C.3     379        0    0.0000
   2277 H         788.4849   85.8782 -100.3258 H       379        0    0.0000
   2278 H         787.2934   86.8649  -99.4861 H       379        0    0.0000
   2279 H         789.1469   88.2565  -99.2025 H       379        0    0.0000
   2280 H         789.3510   87.2624  -97.7643 H       379        0    0.0000
   2281 C         790.7512   86.7842  -99.3707 C.3     380        0    0.0000
   2282 C         791.8694   87.7002  -98.8609 C.3     380        0    0.0000
   2283 H         790.9335   85.7520  -99.0468 H       380        0    0.0000
   2284 H         790.7444   86.7736 -100.4677 H       380        0    0.0000
   2285 H         791.5555   88.7494  -98.9270 H       380        0    0.0000
   2286 H         792.0684   87.4970  -97.8014 H       380        0    0.0000
   2287 C         793.2004   87.5190  -99.6689 C.3     381        0    0.0000
   2288 C         794.3322   88.4006  -99.1292 C.3     381        0    0.0000
   2289 H         793.4958   86.4631  -99.6317 H       381        0    0.0000
   2290 H         793.0093   87.7557 -100.7230 H       381        0    0.0000
   2291 H         794.0037   89.4462  -99.0803 H       381        0    0.0000
   2292 H         794.5856   88.1017  -98.1045 H       381        0    0.0000
   2293 C         795.6235   88.3174 -100.0139 C.3     382        0    0.0000
   2294 C         796.6938   89.3231  -99.5755 C.3     382        0    0.0000
   2295 H         796.0226   87.2968  -99.9619 H       382        0    0.0000
   2296 H         795.3471   88.4947 -101.0607 H       382        0    0.0000
   2297 H         796.2211   90.2602  -99.2562 H       382        0    0.0000
   2298 H         797.2416   88.9351  -98.7078 H       382        0    0.0000
   2299 C         797.7177   89.6379 -100.7200 C.3     383        0    0.0000
   2300 C         799.1072   89.9884 -100.1762 C.3     383        0    0.0000
   2301 H         797.7827   88.7681 -101.3855 H       383        0    0.0000
   2302 H         797.3296   90.4679 -101.3234 H       383        0    0.0000
   2303 H         799.0262   90.7767  -99.4175 H       383        0    0.0000
   2304 H         799.5472   89.1157  -99.6780 H       383        0    0.0000
   2305 C         800.0823   90.4713 -101.3045 C.3     384        0    0.0000
   2306 C         801.4509   90.8847 -100.7519 C.3     384        0    0.0000
   2307 H         800.2012   89.6645 -102.0383 H       384        0    0.0000
   2308 H         799.6206   91.3136 -101.8344 H       384        0    0.0000
   2309 H         801.4874   91.9722 -100.6128 H       384        0    0.0000
   2310 H         801.6089   90.4351  -99.7638 H       384        0    0.0000
   2311 C         802.6268   90.4563 -101.6959 C.3     385        0    0.0000
   2312 C         803.9781   91.0069 -101.2271 C.3     385        0    0.0000
   2313 H         802.6625   89.3608 -101.7416 H       385        0    0.0000
   2314 H         802.4100   90.8071 -102.7125 H       385        0    0.0000
   2315 H         803.9049   92.0881 -101.0563 H       385        0    0.0000
   2316 H         804.2561   90.5544 -100.2671 H       385        0    0.0000
   2317 C         805.1223   90.7355 -102.2638 C.3     386        0    0.0000
   2318 C         806.3760   91.5691 -101.9767 C.3     386        0    0.0000
   2319 H         805.3691   89.6667 -102.2462 H       386        0    0.0000
   2320 H         804.7466   90.9556 -103.2707 H       386        0    0.0000
   2321 H         806.7837   91.9700 -102.9129 H       386        0    0.0000
   2322 H         806.1185   92.4321 -101.3501 H       386        0    0.0000
   2323 C         807.4912   90.7360 -101.2558 C.3     387        0    0.0000
   2324 C         808.6841   91.6023 -100.8366 C.3     387        0    0.0000
   2325 H         807.0544   90.2466 -100.3765 H       387        0    0.0000
   2326 H         807.8252   89.9360 -101.9281 H       387        0    0.0000
   2327 H         808.3364   92.4653 -100.2553 H       387        0    0.0000
   2328 H         809.3528   91.0301 -100.1817 H       387        0    0.0000
   2329 C         809.5043   92.1200 -102.0682 C.3     388        0    0.0000
   2330 C         810.8674   92.6899 -101.6602 C.3     388        0    0.0000
   2331 H         809.6391   91.2928 -102.7762 H       388        0    0.0000
   2332 H         808.9162   92.8867 -102.5877 H       388        0    0.0000
   2333 H         811.1545   92.3078 -100.6728 H       388        0    0.0000
   2334 H         811.6402   92.3567 -102.3639 H       388        0    0.0000
   2335 C         810.8667   94.2569 -101.6150 C.3     389        0    0.0000
   2336 C         812.2579   94.8302 -101.3236 C.3     389        0    0.0000
   2337 H         810.4963   94.6382 -102.5747 H       389        0    0.0000
   2338 H         810.1552   94.5882 -100.8486 H       389        0    0.0000
   2339 H         812.2352   95.9250 -101.3906 H       389        0    0.0000
   2340 H         812.5591   94.5836 -100.2978 H       389        0    0.0000
   2341 C         813.3443   94.2858 -102.3139 C.3     390        0    0.0000
   2342 C         814.7674   94.4782 -101.7782 C.3     390        0    0.0000
   2343 H         813.1526   93.2215 -102.4987 H       390        0    0.0000
   2344 H         813.2327   94.7980 -103.2776 H       390        0    0.0000
   2345 H         814.7366   94.7291 -100.7106 H       390        0    0.0000
   2346 H         815.3320   93.5416 -101.8655 H       390        0    0.0000
   2347 C         815.5416   95.6079 -102.5408 C.3     391        0    0.0000
   2348 C         817.0372   95.6153 -102.2054 C.3     391        0    0.0000
   2349 H         815.3987   95.4684 -103.6195 H       391        0    0.0000
   2350 H         815.0943   96.5768 -102.2865 H       391        0    0.0000
   2351 H         817.3818   94.5942 -102.0009 H       391        0    0.0000
   2352 H         817.6139   95.9761 -103.0661 H       391        0    0.0000
   2353 C         817.3634   96.5166 -100.9650 C.3     392        0    0.0000
   2354 C         818.8593   96.8308 -100.8526 C.3     392        0    0.0000
   2355 H         816.7884   97.4476 -101.0434 H       392        0    0.0000
   2356 H         817.0167   96.0077 -100.0571 H       392        0    0.0000
   2357 H         819.3284   96.7871 -101.8433 H       392        0    0.0000
   2358 H         819.0021   97.8531 -100.4812 H       392        0    0.0000
   2359 C         819.6048   95.8371  -99.8963 C.3     393        0    0.0000
   2360 C         821.1246   95.8729 -100.0915 C.3     393        0    0.0000
   2361 H         819.3528   96.0888  -98.8587 H       393        0    0.0000
   2362 H         819.2264   94.8230 -100.0753 H       393        0    0.0000
   2363 H         821.6308   95.7369  -99.1278 H       393        0    0.0000
   2364 H         821.4410   95.0417 -100.7337 H       393        0    0.0000
   2365 C         821.6098   97.2191 -100.7316 C.3     394        0    0.0000
   2366 C         823.0386   97.1209 -101.2776 C.3     394        0    0.0000
   2367 H         820.9180   97.4977 -101.5361 H       394        0    0.0000
   2368 H         821.5497   98.0120  -99.9757 H       394        0    0.0000
   2369 H         823.7621   97.2451 -100.4625 H       394        0    0.0000
   2370 H         823.2110   96.1245 -101.7029 H       394        0    0.0000
   2371 C         823.3288   98.1976 -102.3794 C.3     395        0    0.0000
   2372 C         824.8293   98.4483 -102.5658 C.3     395        0    0.0000
   2373 H         822.8828   97.8652 -103.3249 H       395        0    0.0000
   2374 H         822.8229   99.1312 -102.1035 H       395        0    0.0000
   2375 H         825.4039   97.5997 -102.1741 H       395        0    0.0000
   2376 H         825.0682   98.5243 -103.6337 H       395        0    0.0000
   2377 C         825.3069   99.7568 -101.8466 C.3     396        0    0.0000
   2378 C         826.8331   99.8288 -101.7248 C.3     396        0    0.0000
   2379 H         824.9329  100.6238 -102.4050 H       396        0    0.0000
   2380 H         824.8477   99.8010 -100.8513 H       396        0    0.0000
   2381 H         827.1616   99.3224 -100.8087 H       396        0    0.0000
   2382 H         827.3027   99.2993 -102.5631 H       396        0    0.0000
   2383 C         827.3583  101.3056 -101.7019 C.3     397        0    0.0000
   2384 C         828.8818  101.3827 -101.8501 C.3     397        0    0.0000
   2385 H         826.8728  101.8661 -102.5105 H       397        0    0.0000
   2386 H         827.0475  101.7769 -100.7612 H       397        0    0.0000
   2387 H         829.1789  101.0578 -102.8550 H       397        0    0.0000
   2388 H         829.2181  102.4214 -101.7426 H       397        0    0.0000
   2389 C         829.6272  100.4982 -100.7920 C.3     398        0    0.0000
   2390 C         831.1417  100.4662 -101.0251 C.3     398        0    0.0000
   2391 H         829.4089  100.8867  -99.7896 H       398        0    0.0000
   2392 H         829.2190   99.4806 -100.8312 H       398        0    0.0000
   2393 H         831.6391   99.9480 -100.1958 H       398        0    0.0000
   2394 H         831.3704   99.8970 -101.9346 H       398        0    0.0000
   2395 C         831.7524  101.9035 -101.1616 C.3     399        0    0.0000
   2396 C         833.2656  101.8712 -101.4031 C.3     399        0    0.0000
   2397 H         831.2508  102.4239 -101.9869 H       399        0    0.0000
   2398 H         831.5291  102.4707 -100.2495 H       399        0    0.0000
   2399 H         833.6776  100.9072 -101.0800 H       399        0    0.0000
   2400 H         833.4772  101.9607 -102.4758 H       399        0    0.0000
   2401 C         834.0132  103.0204 -100.6430 C.3     400        0    0.0000
   2402 C         835.5312  102.9598 -100.8463 C.3     400        0    0.0000
   2403 H         833.6254  103.9856 -100.9915 H       400        0    0.0000
   2404 H         833.7737  102.9519  -99.5746 H       400        0    0.0000
   2405 H         835.7629  102.5001 -101.8151 H       400        0    0.0000
   2406 H         835.9481  103.9742 -100.8712 H       400        0    0.0000
   2407 C         836.2499  102.1456  -99.7159 C.3     401        0    0.0000
   2408 C         837.7106  102.5720  -99.5319 C.3     401        0    0.0000
   2409 H         835.6978  102.2801  -98.7775 H       401        0    0.0000
   2410 H         836.1979  101.0777  -99.9617 H       401        0    0.0000
   2411 H         837.7580  103.6108  -99.1825 H       401        0    0.0000
   2412 H         838.1873  101.9573  -98.7584 H       401        0    0.0000
   2413 C         838.5375  102.4468 -100.8578 C.3     402        0    0.0000
   2414 C         839.8374  103.2575 -100.8105 C.3     402        0    0.0000
   2415 H         838.7611  101.3877 -101.0364 H       402        0    0.0000
   2416 H         837.9148  102.7829 -101.6961 H       402        0    0.0000
   2417 H         839.6117  104.3310 -100.8225 H       402        0    0.0000
   2418 H         840.3711  103.0583  -99.8729 H       402        0    0.0000
   2419 C         840.7876  102.9274 -102.0128 C.3     403        0    0.0000
   2420 C         842.1199  103.6799 -101.9239 C.3     403        0    0.0000
   2421 H         840.9675  101.8454 -102.0345 H       403        0    0.0000
   2422 H         840.2745  103.1803 -102.9488 H       403        0    0.0000
   2423 H         842.9464  102.9687 -101.8031 H       403        0    0.0000
   2424 H         842.3071  104.2248 -102.8574 H       403        0    0.0000
   2425 C         842.1496  104.6964 -100.7309 C.3     404        0    0.0000
   2426 C         843.5457  105.2873 -100.5058 C.3     404        0    0.0000
   2427 H         841.4293  105.4991 -100.9322 H       404        0    0.0000
   2428 H         841.8063  104.1858  -99.8226 H       404        0    0.0000
   2429 H         844.1923  104.5486 -100.0160 H       404        0    0.0000
   2430 H         844.0132  105.5255 -101.4692 H       404        0    0.0000
   2431 C         843.5070  106.5857  -99.6282 C.3     405        0    0.0000
   2432 C         844.9104  107.1117  -99.3069 C.3     405        0    0.0000
   2433 H         842.9297  107.3535 -100.1578 H       405        0    0.0000
   2434 H         842.9650  106.3687  -98.6993 H       405        0    0.0000
   2435 H         845.3912  107.4830 -100.2204 H       405        0    0.0000
   2436 H         844.8445  107.9624  -98.6175 H       405        0    0.0000
   2437 C         845.8249  106.0115  -98.6661 C.3     406        0    0.0000
   2438 C         847.2455  106.5207  -98.3983 C.3     406        0    0.0000
   2439 H         845.3649  105.6704  -97.7303 H       406        0    0.0000
   2440 H         845.8565  105.1435  -99.3363 H       406        0    0.0000
   2441 H         847.2385  107.6116  -98.2827 H       406        0    0.0000
   2442 H         847.6220  106.1063  -97.4549 H       406        0    0.0000
   2443 C         848.2397  106.1409  -99.5494 C.3     407        0    0.0000
   2444 C         849.5410  106.9479  -99.4827 C.3     407        0    0.0000
   2445 H         848.4590  105.0678  -99.4875 H       407        0    0.0000
   2446 H         847.7437  106.3060 -100.5138 H       407        0    0.0000
   2447 H         850.3369  106.4239 -100.0263 H       407        0    0.0000
   2448 H         849.4077  107.9181  -99.9773 H       407        0    0.0000
   2449 C         850.0132  107.1930  -98.0082 C.3     408        0    0.0000
   2450 C         851.0810  108.2886  -97.9146 C.3     408        0    0.0000
   2451 H         849.1423  107.4636  -97.3983 H       408        0    0.0000
   2452 H         850.4030  106.2520  -97.6006 H       408        0    0.0000
   2453 H         850.6759  109.2407  -98.2790 H       408        0    0.0000
   2454 H         851.3659  108.4476  -96.8672 H       408        0    0.0000
   2455 C         852.3665  107.9373  -98.7401 C.3     409        0    0.0000
   2456 C         853.4846  108.9663  -98.5400 C.3     409        0    0.0000
   2457 H         852.7155  106.9403  -98.4439 H       409        0    0.0000
   2458 H         852.0986  107.8746  -99.8021 H       409        0    0.0000
   2459 H         853.0903  109.9812  -98.6750 H       409        0    0.0000
   2460 H         853.8674  108.9111  -97.5134 H       409        0    0.0000
   2461 C         854.6759  108.7505  -99.5357 C.3     410        0    0.0000
   2462 C         855.8081  109.7597  -99.3144 C.3     410        0    0.0000
   2463 H         855.0551  107.7279  -99.4173 H       410        0    0.0000
   2464 H         854.2973  108.8292 -100.5623 H       410        0    0.0000
   2465 H         856.1733  110.1329 -100.2792 H       410        0    0.0000
   2466 H         855.4335  110.6300  -98.7615 H       410        0    0.0000
   2467 C         857.0114  109.1388  -98.5244 C.3     411        0    0.0000
   2468 C         857.8032  110.1960  -97.7470 C.3     411        0    0.0000
   2469 H         856.6266  108.3758  -97.8365 H       411        0    0.0000
   2470 H         857.6700  108.6211  -99.2328 H       411        0    0.0000
   2471 H         857.8585  111.1260  -98.3263 H       411        0    0.0000
   2472 H         857.2871  110.4388  -96.8099 H       411        0    0.0000
   2473 C         859.2596  109.7212  -97.4134 C.3     412        0    0.0000
   2474 C         859.9892  110.6956  -96.4820 C.3     412        0    0.0000
   2475 H         859.2106  108.7265  -96.9534 H       412        0    0.0000
   2476 H         859.8179  109.6076  -98.3509 H       412        0    0.0000
   2477 H         859.2620  111.2824  -95.9073 H       412        0    0.0000
   2478 H         860.5917  110.1394  -95.7532 H       412        0    0.0000
   2479 C         860.9252  111.6787  -97.2661 C.3     413        0    0.0000
   2480 C         861.4457  112.8159  -96.3801 C.3     413        0    0.0000
   2481 H         861.7665  111.1104  -97.6814 H       413        0    0.0000
   2482 H         860.3711  112.0899  -98.1190 H       413        0    0.0000
   2483 H         861.2587  113.7837  -96.8617 H       413        0    0.0000
   2484 H         860.9030  112.8285  -95.4267 H       413        0    0.0000
   2485 C         862.9800  112.6857  -96.0866 C.3     414        0    0.0000
   2486 C         863.5574  113.9505  -95.4415 C.3     414        0    0.0000
   2487 H         863.1425  111.8213  -95.4309 H       414        0    0.0000
   2488 H         863.5029  112.4707  -97.0267 H       414        0    0.0000
   2489 H         863.2917  114.8319  -96.0381 H       414        0    0.0000
   2490 H         863.1188  114.0993  -94.4470 H       414        0    0.0000
   2491 C         865.1175  113.8868  -95.3013 C.3     415        0    0.0000
   2492 C         865.6810  115.0866  -94.5319 C.3     415        0    0.0000
   2493 H         865.3890  112.9530  -94.7935 H       415        0    0.0000
   2494 H         865.5610  113.8407  -96.3037 H       415        0    0.0000
   2495 H         865.6398  115.9872  -95.1569 H       415        0    0.0000
   2496 H         865.0651  115.2888  -93.6468 H       415        0    0.0000
   2497 C         867.1626  114.8563  -94.0746 C.3     416        0    0.0000
   2498 C         867.9992  116.1384  -94.1482 C.3     416        0    0.0000
   2499 H         867.1597  114.4675  -93.0487 H       416        0    0.0000
   2500 H         867.6104  114.0782  -94.7050 H       416        0    0.0000
   2501 H         867.7765  116.6801  -95.0759 H       416        0    0.0000
   2502 H         867.7344  116.8084  -93.3209 H       416        0    0.0000
   2503 C         869.5385  115.8476  -94.0900 C.3     417        0    0.0000
   2504 C         870.2844  116.8433  -93.1948 C.3     417        0    0.0000
   2505 H         869.6915  114.8248  -93.7238 H       417        0    0.0000
   2506 H         869.9435  115.8812  -95.1090 H       417        0    0.0000
   2507 H         870.4547  117.7819  -93.7368 H       417        0    0.0000
   2508 H         869.6733  117.0920  -92.3183 H       417        0    0.0000
   2509 C         871.6650  116.2843  -92.7062 C.3     418        0    0.0000
   2510 C         872.7382  117.3756  -92.6266 C.3     418        0    0.0000
   2511 H         871.5295  115.8176  -91.7226 H       418        0    0.0000
   2512 H         871.9868  115.4894  -93.3904 H       418        0    0.0000
   2513 H         873.6885  116.9985  -93.0245 H       418        0    0.0000
   2514 H         872.4522  118.2308  -93.2515 H       418        0    0.0000
   2515 C         872.9683  117.8767  -91.1592 C.3     419        0    0.0000
   2516 C         874.1511  118.8458  -91.0550 C.3     419        0    0.0000
   2517 H         872.0513  118.3629  -90.8036 H       419        0    0.0000
   2518 H         873.1358  117.0077  -90.5108 H       419        0    0.0000
   2519 H         873.9240  119.7757  -91.5910 H       419        0    0.0000
   2520 H         874.3215  119.1201  -90.0066 H       419        0    0.0000
   2521 C         875.4720  118.2359  -91.6388 C.3     420        0    0.0000
   2522 C         876.6315  119.2382  -91.6223 C.3     420        0    0.0000
   2523 H         875.7372  117.3444  -91.0569 H       420        0    0.0000
   2524 H         875.2819  117.8974  -92.6648 H       420        0    0.0000
   2525 H         877.2741  119.0844  -92.4981 H       420        0    0.0000
   2526 H         876.2444  120.2624  -91.6916 H       420        0    0.0000
   2527 C         877.5051  119.1148  -90.3265 C.3     421        0    0.0000
   2528 C         878.3552  120.3657  -90.0779 C.3     421        0    0.0000
   2529 H         876.8439  118.9331  -89.4702 H       421        0    0.0000
   2530 H         878.1513  118.2331  -90.4184 H       421        0    0.0000
   2531 H         879.0756  120.4994  -90.8944 H       421        0    0.0000
   2532 H         877.7177  121.2585  -90.0709 H       421        0    0.0000
   2533 C         879.1371  120.2926  -88.7211 C.3     422        0    0.0000
   2534 C         880.1085  121.4652  -88.5465 C.3     422        0    0.0000
   2535 H         878.4137  120.2774  -87.8965 H       422        0    0.0000
   2536 H         879.6833  119.3421  -88.6785 H       422        0    0.0000
   2537 H         879.9570  122.2013  -89.3457 H       422        0    0.0000
   2538 H         879.9078  121.9821  -87.5998 H       422        0    0.0000
   2539 C         881.6064  121.0032  -88.5623 C.3     423        0    0.0000
   2540 C         882.5796  122.1860  -88.5077 C.3     423        0    0.0000
   2541 H         881.7792  120.3343  -87.7101 H       423        0    0.0000
   2542 H         881.7844  120.4112  -89.4686 H       423        0    0.0000
   2543 H         882.5365  122.7523  -89.4463 H       423        0    0.0000
   2544 H         882.2862  122.8779  -87.7085 H       423        0    0.0000
   2545 C         884.0584  121.7277  -88.2615 C.3     424        0    0.0000
   2546 C         884.9736  122.8974  -87.8828 C.3     424        0    0.0000
   2547 H         884.0665  120.9712  -87.4670 H       424        0    0.0000
   2548 H         884.4319  121.2362  -89.1683 H       424        0    0.0000
   2549 H         885.0638  123.5928  -88.7264 H       424        0    0.0000
   2550 H         884.5350  123.4646  -87.0525 H       424        0    0.0000
   2551 C         886.4073  122.4192  -87.4665 C.3     425        0    0.0000
   2552 C         887.2686  123.5666  -86.9270 C.3     425        0    0.0000
   2553 H         886.3114  121.6323  -86.7082 H       425        0    0.0000
   2554 H         886.8937  121.9608  -88.3365 H       425        0    0.0000
   2555 H         887.5729  124.2269  -87.7486 H       425        0    0.0000
   2556 H         886.6842  124.1799  -86.2299 H       425        0    0.0000
   2557 C         888.5530  123.0504  -86.1915 C.3     426        0    0.0000
   2558 C         889.3922  124.1960  -85.6148 C.3     426        0    0.0000
   2559 H         888.2502  122.3654  -85.3897 H       426        0    0.0000
   2560 H         889.1530  122.4631  -86.8977 H       426        0    0.0000
   2561 H         888.7365  124.9999  -85.2581 H       426        0    0.0000
   2562 H         889.9614  123.8446  -84.7453 H       426        0    0.0000
   2563 C         890.3915  124.7885  -86.6672 C.3     427        0    0.0000
   2564 C         891.2643  125.9016  -86.0769 C.3     427        0    0.0000
   2565 H         891.0238  123.9778  -87.0499 H       427        0    0.0000
   2566 H         889.8196  125.1719  -87.5212 H       427        0    0.0000
   2567 H         891.2929  125.8173  -84.9835 H       427        0    0.0000
   2568 H         892.2982  125.7951  -86.4281 H       427        0    0.0000
   2569 C         890.7450  127.3302  -86.4602 C.3     428        0    0.0000
   2570 C         890.9741  128.3513  -85.3405 C.3     428        0    0.0000
   2571 H         891.2521  127.6567  -87.3766 H       428        0    0.0000
   2572 H         889.6758  127.2658  -86.6976 H       428        0    0.0000
   2573 H         890.7683  129.3645  -85.7075 H       428        0    0.0000
   2574 H         890.2755  128.1674  -84.5149 H       428        0    0.0000
   2575 C         892.4387  128.3035  -84.7833 C.3     429        0    0.0000
   2576 C         892.6364  129.2424  -83.5880 C.3     429        0    0.0000
   2577 H         892.6735  127.2717  -84.4940 H       429        0    0.0000
   2578 H         893.1328  128.5703  -85.5899 H       429        0    0.0000
   2579 H         892.6400  130.2860  -83.9260 H       429        0    0.0000
   2580 H         891.7981  129.1410  -82.8875 H       429        0    0.0000
   2581 C         893.9731  128.9548  -82.8214 C.3     430        0    0.0000
   2582 C         894.9782  130.1041  -82.9551 C.3     430        0    0.0000
   2583 H         893.7430  128.7775  -81.7635 H       430        0    0.0000
   2584 H         894.4100  128.0260  -83.2087 H       430        0    0.0000
   2585 H         895.0129  130.4545  -83.9941 H       430        0    0.0000
   2586 H         894.6568  130.9577  -82.3454 H       430        0    0.0000
   2587 C         896.4230  129.6842  -82.5149 C.3     431        0    0.0000
   2588 C         897.3064  130.8941  -82.1914 C.3     431        0    0.0000
   2589 H         896.3490  129.0276  -81.6392 H       431        0    0.0000
   2590 H         896.8782  129.0898  -83.3168 H       431        0    0.0000
   2591 H         897.7219  131.3144  -83.1157 H       431        0    0.0000
   2592 H         896.7049  131.6859  -81.7279 H       431        0    0.0000
   2593 C         898.4871  130.5270  -81.2279 C.3     432        0    0.0000
   2594 C         899.7161  131.4155  -81.4502 C.3     432        0    0.0000
   2595 H         898.1393  130.6185  -80.1914 H       432        0    0.0000
   2596 H         898.7525  129.4733  -81.3792 H       432        0    0.0000
   2597 H         899.8160  131.6596  -82.5150 H       432        0    0.0000
   2598 H         899.5930  132.3674  -80.9190 H       432        0    0.0000
   2599 C         901.0397  130.7319  -80.9620 C.3     433        0    0.0000
   2600 C         901.9646  131.7121  -80.2319 C.3     433        0    0.0000
   2601 H         900.7824  129.8946  -80.3015 H       433        0    0.0000
   2602 H         901.5563  130.3020  -81.8290 H       433        0    0.0000
   2603 H         902.9060  131.2148  -79.9673 H       433        0    0.0000
   2604 H         902.2247  132.5476  -80.8936 H       433        0    0.0000
   2605 C         901.3117  132.2852  -78.9271 C.3     434        0    0.0000
   2606 C         902.2723  133.1879  -78.1450 C.3     434        0    0.0000
   2607 H         900.4081  132.8444  -79.1999 H       434        0    0.0000
   2608 H         900.9858  131.4479  -78.2975 H       434        0    0.0000
   2609 H         901.7908  134.1489  -77.9256 H       434        0    0.0000
   2610 H         902.5163  132.7297  -77.1786 H       434        0    0.0000
   2611 C         903.6041  133.4570  -78.9272 C.3     435        0    0.0000
   2612 C         904.5838  134.3214  -78.1259 C.3     435        0    0.0000
   2613 H         904.0684  132.4949  -79.1764 H       435        0    0.0000
   2614 H         903.3625  133.9462  -79.8790 H       435        0    0.0000
   2615 H         904.0700  135.2086  -77.7353 H       435        0    0.0000
   2616 H         904.9536  133.7635  -77.2567 H       435        0    0.0000
   2617 C         905.8087  134.7850  -78.9873 C.3     436        0    0.0000
   2618 C         906.9907  135.2351  -78.1215 C.3     436        0    0.0000
   2619 H         906.1144  133.9586  -79.6409 H       436        0    0.0000
   2620 H         905.4897  135.6042  -79.6435 H       436        0    0.0000
   2621 H         907.6002  135.9658  -78.6675 H       436        0    0.0000
   2622 H         906.6249  135.7412  -77.2195 H       436        0    0.0000
   2623 C         907.9037  134.0352  -77.6925 C.3     437        0    0.0000
   2624 C         908.9200  134.4342  -76.6168 C.3     437        0    0.0000
   2625 H         907.2676  133.2204  -77.3252 H       437        0    0.0000
   2626 H         908.4248  133.6529  -78.5790 H       437        0    0.0000
   2627 H         908.6097  134.0394  -75.6414 H       437        0    0.0000
   2628 H         909.8979  133.9898  -76.8399 H       437        0    0.0000
   2629 C         909.0856  135.9889  -76.5033 C.3     438        0    0.0000
   2630 C         910.1887  136.3851  -75.5157 C.3     438        0    0.0000
   2631 H         909.3080  136.3944  -77.4981 H       438        0    0.0000
   2632 H         908.1280  136.4247  -76.1924 H       438        0    0.0000
   2633 H         909.7512  136.6188  -74.5372 H       438        0    0.0000
   2634 H         910.8751  135.5435  -75.3610 H       438        0    0.0000
   2635 C         911.0118  137.6243  -76.0102 C.3     439        0    0.0000
   2636 C         912.2070  137.9283  -75.1001 C.3     439        0    0.0000
   2637 H         911.3573  137.4336  -77.0338 H       439        0    0.0000
   2638 H         910.3455  138.4945  -76.0595 H       439        0    0.0000
   2639 H         911.8557  138.2159  -74.1014 H       439        0    0.0000
   2640 H         912.8203  137.0279  -74.9712 H       439        0    0.0000
   2641 C         913.1094  139.0772  -75.6686 C.3     440        0    0.0000
   2642 C         914.2001  139.5026  -74.6794 C.3     440        0    0.0000
   2643 H         913.5646  138.7377  -76.6072 H       440        0    0.0000
   2644 H         912.4734  139.9352  -75.9191 H       440        0    0.0000
   2645 H         915.1561  139.6250  -75.2033 H       440        0    0.0000
   2646 H         913.9526  140.4784  -74.2433 H       440        0    0.0000
   2647 C         914.3885  138.4642  -73.5201 C.3     441        0    0.0000
   2648 C         915.3353  138.9769  -72.4293 C.3     441        0    0.0000
   2649 H         913.4066  138.2342  -73.0884 H       441        0    0.0000
   2650 H         914.7738  137.5282  -73.9431 H       441        0    0.0000
   2651 H         915.2090  140.0589  -72.2998 H       441        0    0.0000
   2652 H         915.0862  138.5132  -71.4667 H       441        0    0.0000
   2653 C         916.8386  138.6795  -72.7594 C.3     442        0    0.0000
   2654 C         917.7933  139.3156  -71.7431 C.3     442        0    0.0000
   2655 H         916.9865  137.5928  -72.7855 H       442        0    0.0000
   2656 H         917.0597  139.0518  -73.7674 H       442        0    0.0000
   2657 H         917.2580  139.5367  -70.8114 H       442        0    0.0000
   2658 H         918.5939  138.6108  -71.4868 H       442        0    0.0000
   2659 C         918.4384  140.6391  -72.2815 C.3     443        0    0.0000
   2660 C         919.3505  141.3043  -71.2447 C.3     443        0    0.0000
   2661 H         919.0071  140.4106  -73.1913 H       443        0    0.0000
   2662 H         917.6375  141.3287  -72.5754 H       443        0    0.0000
   2663 H         920.3488  141.4653  -71.6701 H       443        0    0.0000
   2664 H         918.9583  142.2935  -70.9782 H       443        0    0.0000
   2665 C         919.4897  140.4474  -69.9394 C.3     444        0    0.0000
   2666 C         920.2181  141.2039  -68.8229 C.3     444        0    0.0000
   2667 H         918.4886  140.1516  -69.6021 H       444        0    0.0000
   2668 H         920.0275  139.5219  -70.1796 H       444        0    0.0000
   2669 H         920.1320  142.2857  -68.9834 H       444        0    0.0000
   2670 H         919.7476  140.9906  -67.8551 H       444        0    0.0000
   2671 C         921.7369  140.8244  -68.7410 C.3     445        0    0.0000
   2672 C         922.5565  141.8701  -67.9768 C.3     445        0    0.0000
   2673 H         921.8309  139.8449  -68.2560 H       445        0    0.0000
   2674 H         922.1283  140.7106  -69.7595 H       445        0    0.0000
   2675 H         921.8879  142.6040  -67.5097 H       445        0    0.0000
   2676 H         923.1144  141.3898  -67.1635 H       445        0    0.0000
   2677 C         923.5677  142.6268  -68.9053 C.3     446        0    0.0000
   2678 C         924.0329  143.9546  -68.2973 C.3     446        0    0.0000
   2679 H         924.4308  141.9760  -69.0927 H       446        0    0.0000
   2680 H         923.0905  142.8048  -69.8770 H       446        0    0.0000
   2681 H         924.0546  144.7343  -69.0687 H       446        0    0.0000
   2682 H         923.3207  144.2880  -67.5323 H       446        0    0.0000
   2683 C         925.4561  143.8450  -67.6493 C.3     447        0    0.0000
   2684 C         925.6606  144.8621  -66.5212 C.3     447        0    0.0000
   2685 H         925.5928  142.8261  -67.2664 H       447        0    0.0000
   2686 H         926.2125  143.9923  -68.4302 H       447        0    0.0000
   2687 H         925.4533  145.8757  -66.8864 H       447        0    0.0000
   2688 H         924.9506  144.6692  -65.7074 H       447        0    0.0000
   2689 C         927.1166  144.8219  -65.9415 C.3     448        0    0.0000
   2690 C         927.3840  145.9704  -64.9625 C.3     448        0    0.0000
   2691 H         927.2717  143.8577  -65.4416 H       448        0    0.0000
   2692 H         927.8299  144.8635  -66.7740 H       448        0    0.0000
   2693 H         927.3925  146.9275  -65.4987 H       448        0    0.0000
   2694 H         926.5754  146.0306  -64.2234 H       448        0    0.0000
   2695 C         928.7474  145.8021  -64.2074 C.3     449        0    0.0000
   2696 C         929.4887  147.1336  -64.0435 C.3     449        0    0.0000
   2697 H         928.5543  145.3556  -63.2241 H       449        0    0.0000
   2698 H         929.3719  145.0894  -64.7599 H       449        0    0.0000
   2699 H         929.6340  147.6062  -65.0228 H       449        0    0.0000
   2700 H         928.8866  147.8281  -63.4447 H       449        0    0.0000
   2701 C         930.8864  146.9547  -63.3564 C.3     450        0    0.0000
   2702 C         931.2608  148.1550  -62.4799 C.3     450        0    0.0000
   2703 H         930.8690  146.0389  -62.7526 H       450        0    0.0000
   2704 H         931.6460  146.8051  -64.1338 H       450        0    0.0000
   2705 H         931.6310  148.9766  -63.1055 H       450        0    0.0000
   2706 H         930.3721  148.5318  -61.9586 H       450        0    0.0000
   2707 C         932.3557  147.7961  -61.4171 C.3     451        0    0.0000
   2708 C         933.6381  148.6142  -61.6051 C.3     451        0    0.0000
   2709 H         931.9445  147.9664  -60.4143 H       451        0    0.0000
   2710 H         932.5795  146.7244  -61.4879 H       451        0    0.0000
   2711 H         933.8349  148.7646  -62.6738 H       451        0    0.0000
   2712 H         933.5162  149.6112  -61.1639 H       451        0    0.0000
   2713 C         934.8851  147.9223  -60.9541 C.3     452        0    0.0000
   2714 C         935.8115  148.9278  -60.2612 C.3     452        0    0.0000
   2715 H         934.5370  147.1726  -60.2328 H       452        0    0.0000
   2716 H         935.4347  147.3792  -61.7327 H       452        0    0.0000
   2717 H         936.0417  149.7575  -60.9410 H       452        0    0.0000
   2718 H         935.3079  149.3648  -59.3899 H       452        0    0.0000
   2719 C         937.1555  148.2715  -59.7916 C.3     453        0    0.0000
   2720 C         938.2114  149.3164  -59.4145 C.3     453        0    0.0000
   2721 H         936.9495  147.6185  -58.9344 H       453        0    0.0000
   2722 H         937.5339  147.6271  -60.5948 H       453        0    0.0000
   2723 H         939.1918  149.0190  -59.8069 H       453        0    0.0000
   2724 H         937.9672  150.2815  -59.8754 H       453        0    0.0000
   2725 C         938.3262  149.5120  -57.8634 C.3     454        0    0.0000
   2726 C         939.2594  150.6696  -57.4913 C.3     454        0    0.0000
   2727 H         937.3240  149.6904  -57.4543 H       454        0    0.0000
   2728 H         938.6879  148.5784  -57.4151 H       454        0    0.0000
   2729 H         939.3133  151.3896  -58.3172 H       454        0    0.0000
   2730 H         938.8590  151.2121  -56.6260 H       454        0    0.0000
   2731 C         940.7094  150.1787  -57.1534 C.3     455        0    0.0000
   2732 C         941.6824  151.3438  -56.9416 C.3     455        0    0.0000
   2733 H         940.6700  149.5530  -56.2531 H       455        0    0.0000
   2734 H         941.0640  149.5359  -57.9686 H       455        0    0.0000
   2735 H         942.6815  151.0698  -57.3023 H       455        0    0.0000
   2736 H         941.3624  152.2129  -57.5298 H       455        0    0.0000
   2737 C         941.7868  151.7642  -55.4350 C.3     456        0    0.0000
   2738 C         942.5027  153.1075  -55.2550 C.3     456        0    0.0000
   2739 H         940.7761  151.8170  -55.0117 H       456        0    0.0000
   2740 H         942.3182  150.9780  -54.8844 H       456        0    0.0000
   2741 H         942.6105  153.6091  -56.2247 H       456        0    0.0000
   2742 H         941.9020  153.7720  -54.6216 H       456        0    0.0000
   2743 C         943.9223  152.9425  -54.6109 C.3     457        0    0.0000
   2744 C         944.4944  154.2757  -54.1166 C.3     457        0    0.0000
   2745 H         943.8524  152.2314  -53.7783 H       457        0    0.0000
   2746 H         944.5968  152.4952  -55.3515 H       457        0    0.0000
   2747 H         944.8563  154.8679  -54.9662 H       457        0    0.0000
   2748 H         943.7067  154.8669  -53.6333 H       457        0    0.0000
   2749 C         945.6719  154.0769  -53.1011 C.3     458        0    0.0000
   2750 C         946.6005  155.2949  -53.0427 C.3     458        0    0.0000
   2751 H         945.2521  153.8761  -52.1076 H       458        0    0.0000
   2752 H         946.2404  153.1840  -53.3892 H       458        0    0.0000
   2753 H         947.1051  155.4297  -54.0075 H       458        0    0.0000
   2754 H         946.0156  156.2055  -52.8630 H       458        0    0.0000
   2755 C         947.6857  155.1614  -51.9193 C.3     459        0    0.0000
   2756 C         948.4562  156.4677  -51.6978 C.3     459        0    0.0000
   2757 H         947.1946  154.8520  -50.9884 H       459        0    0.0000
   2758 H         948.3798  154.3569  -52.1919 H       459        0    0.0000
   2759 H         949.1314  156.6539  -52.5422 H       459        0    0.0000
   2760 H         947.7590  157.3138  -51.6595 H       459        0    0.0000
   2761 C         949.2963  156.4449  -50.3746 C.3     460        0    0.0000
   2762 C         950.6500  157.1459  -50.5338 C.3     460        0    0.0000
   2763 H         948.7150  156.9261  -49.5783 H       460        0    0.0000
   2764 H         949.4464  155.4021  -50.0689 H       460        0    0.0000
   2765 H         951.2571  156.6254  -51.2849 H       460        0    0.0000
   2766 H         950.5028  158.1689  -50.9015 H       460        0    0.0000
   2767 C         951.4514  157.2031  -49.1877 C.3     461        0    0.0000
   2768 C         952.6105  158.2042  -49.2439 C.3     461        0    0.0000
   2769 H         950.7623  157.4706  -48.3771 H       461        0    0.0000
   2770 H         951.8317  156.1996  -48.9597 H       461        0    0.0000
   2771 H         953.3184  157.9164  -50.0310 H       461        0    0.0000
   2772 H         952.2346  159.2007  -49.5072 H       461        0    0.0000
   2773 C         953.3807  158.2984  -47.8816 C.3     462        0    0.0000
   2774 C         954.7656  158.9354  -48.0402 C.3     462        0    0.0000
   2775 H         952.7776  158.8808  -47.1740 H       462        0    0.0000
   2776 H         953.4763  157.2906  -47.4591 H       462        0    0.0000
   2777 H         955.3414  158.3985  -48.8041 H       462        0    0.0000
   2778 H         954.6658  159.9703  -48.3903 H       462        0    0.0000
   2779 C         955.5782  158.9318  -46.6996 C.3     463        0    0.0000
   2780 C         956.5967  160.0753  -46.6346 C.3     463        0    0.0000
   2781 H         954.8758  159.0055  -45.8601 H       463        0    0.0000
   2782 H         956.0897  157.9665  -46.5987 H       463        0    0.0000
   2783 H         957.2859  160.0141  -47.4859 H       463        0    0.0000
   2784 H         956.0830  161.0415  -46.7141 H       463        0    0.0000
   2785 C         957.4301  160.0539  -45.3070 C.3     464        0    0.0000
   2786 C         958.7811  160.7619  -45.4578 C.3     464        0    0.0000
   2787 H         956.8423  160.5305  -44.5127 H       464        0    0.0000
   2788 H         957.5837  159.0111  -45.0027 H       464        0    0.0000
   2789 H         959.2216  160.5275  -46.4348 H       464        0    0.0000
   2790 H         958.6412  161.8496  -45.4280 H       464        0    0.0000
   2791 C         959.7952  160.3520  -44.3348 C.3     465        0    0.0000
   2792 C         960.5562  161.5572  -43.7712 C.3     465        0    0.0000
   2793 H         959.2471  159.8441  -43.5316 H       465        0    0.0000
   2794 H         960.5014  159.6201  -44.7461 H       465        0    0.0000
   2795 H         960.9004  162.2011  -44.5900 H       465        0    0.0000
   2796 H         959.8881  162.1670  -43.1504 H       465        0    0.0000
   2797 C         961.7944  161.1285  -42.9107 C.3     466        0    0.0000
   2798 C         962.7017  162.3150  -42.5670 C.3     466        0    0.0000
   2799 H         961.4370  160.6494  -41.9908 H       466        0    0.0000
   2800 H         962.3619  160.3683  -43.4618 H       466        0    0.0000
   2801 H         962.7694  162.9973  -43.4234 H       466        0    0.0000
   2802 H         962.2702  162.8908  -41.7388 H       466        0    0.0000
   2803 C         964.1478  161.8608  -42.1672 C.3     467        0    0.0000
   2804 C         964.7882  162.8000  -41.1391 C.3     467        0    0.0000
   2805 H         964.1000  160.8407  -41.7663 H       467        0    0.0000
   2806 H         964.7668  161.8151  -43.0718 H       467        0    0.0000
   2807 H         964.5373  163.8418  -41.3738 H       467        0    0.0000
   2808 H         964.3838  162.5959  -40.1400 H       467        0    0.0000
   2809 C         966.3483  162.6543  -41.0921 C.3     468        0    0.0000
   2810 C         967.0054  163.7235  -40.2122 C.3     468        0    0.0000
   2811 H         966.5990  161.6537  -40.7185 H       468        0    0.0000
   2812 H         966.7402  162.7160  -42.1149 H       468        0    0.0000
   2813 H         968.0915  163.7224  -40.3668 H       468        0    0.0000
   2814 H         966.6472  164.7197  -40.5000 H       468        0    0.0000
   2815 C         966.7117  163.5016  -38.6884 C.3     469        0    0.0000
   2816 C         967.4164  164.5365  -37.8044 C.3     469        0    0.0000
   2817 H         965.6274  163.5452  -38.5272 H       469        0    0.0000
   2818 H         967.0311  162.4896  -38.4104 H       469        0    0.0000
   2819 H         967.2434  165.5463  -38.1964 H       469        0    0.0000
   2820 H         966.9954  164.5152  -36.7915 H       469        0    0.0000
   2821 C         968.9615  164.2874  -37.7144 C.3     470        0    0.0000
   2822 C         969.7153  165.5045  -37.1671 C.3     470        0    0.0000
   2823 H         969.1423  163.4143  -37.0752 H       470        0    0.0000
   2824 H         969.3369  164.0300  -38.7127 H       470        0    0.0000
   2825 H         969.5949  166.3579  -37.8459 H       470        0    0.0000
   2826 H         969.2905  165.8072  -36.2020 H       470        0    0.0000
   2827 C         971.2454  165.2204  -36.9789 C.3     471        0    0.0000
   2828 C         971.9292  166.2775  -36.1048 C.3     471        0    0.0000
   2829 H         971.3680  164.2261  -36.5319 H       471        0    0.0000
   2830 H         971.7222  165.1830  -37.9662 H       471        0    0.0000
   2831 H         971.8287  167.2683  -36.5648 H       471        0    0.0000
   2832 H         971.4360  166.3329  -35.1264 H       471        0    0.0000
   2833 C         973.4516  165.9739  -35.8869 C.3     472        0    0.0000
   2834 C         974.0976  166.9346  -34.8824 C.3     472        0    0.0000
   2835 H         973.5596  164.9387  -35.5401 H       472        0    0.0000
   2836 H         973.9668  166.0378  -36.8533 H       472        0    0.0000
   2837 H         973.9976  167.9691  -35.2337 H       472        0    0.0000
   2838 H         973.5765  166.8774  -33.9187 H       472        0    0.0000
   2839 C         975.6169  166.6228  -34.6548 C.3     473        0    0.0000
   2840 C         976.2573  167.5691  -33.6332 C.3     473        0    0.0000
   2841 H         975.7182  165.5832  -34.3196 H       473        0    0.0000
   2842 H         976.1408  166.6966  -35.6158 H       473        0    0.0000
   2843 H         976.1454  168.6096  -33.9625 H       473        0    0.0000
   2844 H         975.7408  167.4866  -32.6688 H       473        0    0.0000
   2845 C         977.7806  167.2682  -33.4180 C.3     474        0    0.0000
   2846 C         978.4173  168.2041  -32.3846 C.3     474        0    0.0000
   2847 H         977.8934  166.2243  -33.1000 H       474        0    0.0000
   2848 H         978.2990  167.3621  -34.3804 H       474        0    0.0000
   2849 H         978.3138  169.2473  -32.7078 H       474        0    0.0000
   2850 H         977.8923  168.1178  -31.4252 H       474        0    0.0000
   2851 C         979.9372  167.8935  -32.1586 C.3     475        0    0.0000
   2852 C         980.5817  168.8501  -31.1494 C.3     475        0    0.0000
   2853 H         980.0387  166.8574  -31.8127 H       475        0    0.0000
   2854 H         980.4580  167.9564  -33.1221 H       475        0    0.0000
   2855 H         980.4518  169.8883  -31.4793 H       475        0    0.0000
   2856 H         980.0814  168.7637  -30.1768 H       475        0    0.0000
   2857 C         982.1118  168.5686  -30.9574 C.3     476        0    0.0000
   2858 C         982.7433  169.4852  -29.9038 C.3     476        0    0.0000
   2859 H         982.2448  167.5181  -30.6705 H       476        0    0.0000
   2860 H         982.6189  168.6985  -31.9215 H       476        0    0.0000
   2861 H         982.6418  170.5342  -30.2084 H       476        0    0.0000
   2862 H         982.2133  169.3817  -28.9489 H       476        0    0.0000
   2863 C         984.2619  169.1699  -29.6755 C.3     477        0    0.0000
   2864 C         984.9138  170.1398  -28.6838 C.3     477        0    0.0000
   2865 H         984.3584  168.1393  -29.3122 H       477        0    0.0000
   2866 H         984.7811  169.2136  -30.6409 H       477        0    0.0000
   2867 H         984.7359  171.1756  -28.9986 H       477        0    0.0000
   2868 H         984.4562  170.0287  -27.6929 H       477        0    0.0000
   2869 C         986.4590  169.9090  -28.5556 C.3     478        0    0.0000
   2870 C         987.0900  170.7898  -27.4715 C.3     478        0    0.0000
   2871 H         986.6412  168.8503  -28.3332 H       478        0    0.0000
   2872 H         986.9286  170.1124  -29.5260 H       478        0    0.0000
   2873 H         987.0046  171.8476  -27.7496 H       478        0    0.0000
   2874 H         986.5481  170.6681  -26.5254 H       478        0    0.0000
   2875 C         988.6019  170.4498  -27.2353 C.3     479        0    0.0000
   2876 C         989.2805  171.4465  -26.2891 C.3     479        0    0.0000
   2877 H         988.6764  169.4339  -26.8278 H       479        0    0.0000
   2878 H         989.1176  170.4395  -28.2035 H       479        0    0.0000
   2879 H         990.3411  171.5501  -26.5497 H       479        0    0.0000
   2880 H         988.8295  172.4401  -26.4031 H       479        0    0.0000
   2881 C         989.1693  171.0104  -24.7875 C.3     480        0    0.0000
   2882 C         989.2037  172.2074  -23.8309 C.3     480        0    0.0000
   2883 H         988.2381  170.4466  -24.6510 H       480        0    0.0000
   2884 H         989.9913  170.3213  -24.5576 H       480        0    0.0000
   2885 H         988.7522  173.0850  -24.3101 H       480        0    0.0000
   2886 H         988.6041  171.9927  -22.9377 H       480        0    0.0000
   2887 C         990.6624  172.5698  -23.3850 C.3     481        0    0.0000
   2888 C         990.7184  173.8788  -22.5897 C.3     481        0    0.0000
   2889 H         991.0627  171.7456  -22.7816 H       481        0    0.0000
   2890 H         991.2966  172.6441  -24.2770 H       481        0    0.0000
   2891 H         990.7520  174.7344  -23.2755 H       481        0    0.0000
   2892 H         989.8081  173.9927  -21.9882 H       481        0    0.0000
   2893 C         991.9634  173.9437  -21.6394 C.3     482        0    0.0000
   2894 C         993.0346  174.9134  -22.1508 C.3     482        0    0.0000
   2895 H         991.6294  174.2458  -20.6391 H       482        0    0.0000
   2896 H         992.3851  172.9358  -21.5397 H       482        0    0.0000
   2897 H         992.9792  174.9927  -23.2436 H       482        0    0.0000
   2898 H         992.8527  175.9191  -21.7523 H       482        0    0.0000
   2899 C         994.4821  174.4650  -21.7495 C.3     483        0    0.0000
   2900 C         995.1595  175.4653  -20.8062 C.3     483        0    0.0000
   2901 H         994.4276  173.4777  -21.2744 H       483        0    0.0000
   2902 H         995.0801  174.3434  -22.6611 H       483        0    0.0000
   2903 H         995.2471  176.4435  -21.2952 H       483        0    0.0000
   2904 H         994.5432  175.6148  -19.9110 H       483        0    0.0000
   2905 C         996.5869  174.9919  -20.3638 C.3     484        0    0.0000
   2906 C         997.3182  176.0513  -19.5319 C.3     484        0    0.0000
   2907 H         996.4888  174.0633  -19.7880 H       484        0    0.0000
   2908 H         997.1716  174.7471  -21.2591 H       484        0    0.0000
   2909 H         997.3812  176.9922  -20.0924 H       484        0    0.0000
   2910 H         996.7532  176.2669  -18.6166 H       484        0    0.0000
   2911 C         998.7668  175.6006  -19.1370 C.3     485        0    0.0000
   2912 C         999.4779  176.6357  -18.2583 C.3     485        0    0.0000
   2913 H         998.7072  174.6390  -18.6121 H       485        0    0.0000
   2914 H         999.3444  175.4243  -20.0529 H       485        0    0.0000
   2915 H         999.5278  177.6001  -18.7787 H       485        0    0.0000
   2916 H         998.9060  176.8039  -17.3374 H       485        0    0.0000
   2917 C        1000.9321  176.1919  -17.8760 C.3     486        0    0.0000
   2918 C        1001.6362  177.2179  -16.9812 C.3     486        0    0.0000
   2919 H        1000.8834  175.2206  -17.3683 H       486        0    0.0000
   2920 H        1001.5082  176.0376  -18.7968 H       486        0    0.0000
   2921 H        1001.6772  178.1914  -17.4854 H       486        0    0.0000
   2922 H        1001.0644  177.3658  -16.0566 H       486        0    0.0000
   2923 C        1003.0946  176.7799  -16.6089 C.3     487        0    0.0000
   2924 C        1003.8076  177.8177  -15.7350 C.3     487        0    0.0000
   2925 H        1003.0520  175.8152  -16.0883 H       487        0    0.0000
   2926 H        1003.6608  176.6140  -17.5337 H       487        0    0.0000
   2927 H        1003.8539  178.7812  -16.2573 H       487        0    0.0000
   2928 H        1003.2390  177.9866  -14.8121 H       487        0    0.0000
   2929 C        1005.2638  177.3769  -15.3577 C.3     488        0    0.0000
   2930 C        1005.9783  178.4167  -14.4874 C.3     488        0    0.0000
   2931 H        1005.2172  176.4149  -14.8325 H       488        0    0.0000
   2932 H        1005.8315  177.2048  -16.2806 H       488        0    0.0000
   2933 H        1005.9291  179.4037  -14.9637 H       488        0    0.0000
   2934 H        1005.4715  178.5087  -13.5188 H       488        0    0.0000
   2935 C        1007.4820  178.0504  -14.2380 C.3     489        0    0.0000
   2936 C        1008.1568  179.0076  -13.2493 C.3     489        0    0.0000
   2937 H        1007.5377  177.0211  -13.8626 H       489        0    0.0000
   2938 H        1008.0133  178.0649  -15.1977 H       489        0    0.0000
   2939 H        1008.0489  180.0431  -13.5952 H       489        0    0.0000
   2940 H        1007.6622  178.9489  -12.2718 H       489        0    0.0000
   2941 C        1009.6812  178.6929  -13.0640 C.3     490        0    0.0000
   2942 C        1010.2979  179.4731  -11.8978 C.3     490        0    0.0000
   2943 H        1009.8024  177.6148  -12.9011 H       490        0    0.0000
   2944 H        1010.2074  178.9318  -13.9965 H       490        0    0.0000
   2945 H        1010.1891  180.5515  -12.0675 H       490        0    0.0000
   2946 H        1009.7626  179.2450  -10.9678 H       490        0    0.0000
   2947 C        1011.8176  179.1434  -11.7000 C.3     491        0    0.0000
   2948 C        1012.4710  180.0318  -10.6355 C.3     491        0    0.0000
   2949 H        1011.9169  178.0871  -11.4210 H       491        0    0.0000
   2950 H        1012.3338  179.2655  -12.6603 H       491        0    0.0000
   2951 H        1012.3818  181.0874  -10.9203 H       491        0    0.0000
   2952 H        1011.9474  179.9185   -9.6781 H       491        0    0.0000
   2953 C        1013.9867  179.6910  -10.4261 C.3     492        0    0.0000
   2954 C        1014.6618  180.6364   -9.4263 C.3     492        0    0.0000
   2955 H        1014.0713  178.6538  -10.0790 H       492        0    0.0000
   2956 H        1014.4977  179.7414  -11.3955 H       492        0    0.0000
   2957 H        1014.5786  181.6735   -9.7743 H       492        0    0.0000
   2958 H        1014.1497  180.5872   -8.4573 H       492        0    0.0000
   2959 C        1016.1769  180.2942   -9.2151 C.3     493        0    0.0000
   2960 C        1016.8495  181.2331   -8.2075 C.3     493        0    0.0000
   2961 H        1016.2606  179.2547   -8.8745 H       493        0    0.0000
   2962 H        1016.6906  180.3509  -10.1829 H       493        0    0.0000
   2963 H        1016.7619  182.2730   -8.5459 H       493        0    0.0000
   2964 H        1016.3387  181.1730   -7.2384 H       493        0    0.0000
   2965 C        1018.3662  180.8949   -8.0010 C.3     494        0    0.0000
   2966 C        1019.0353  181.8245   -6.9826 C.3     494        0    0.0000
   2967 H        1018.4543  179.8517   -7.6728 H       494        0    0.0000
   2968 H        1018.8790  180.9652   -8.9683 H       494        0    0.0000
   2969 H        1018.9446  182.8679   -7.3095 H       494        0    0.0000
   2970 H        1018.5240  181.7521   -6.0146 H       494        0    0.0000
   2971 C        1020.5529  181.4888   -6.7791 C.3     495        0    0.0000
   2972 C        1021.2213  182.4168   -5.7587 C.3     495        0    0.0000
   2973 H        1020.6436  180.4449   -6.4541 H       495        0    0.0000
   2974 H        1021.0644  181.5630   -7.7467 H       495        0    0.0000
   2975 H        1021.1325  183.4605   -6.0848 H       495        0    0.0000
   2976 H        1020.7084  182.3442   -4.7917 H       495        0    0.0000
   2977 C        1022.7382  182.0790   -5.5528 C.3     496        0    0.0000
   2978 C        1023.4456  183.1042   -4.6597 C.3     496        0    0.0000
   2979 H        1022.8209  181.0771   -5.1137 H       496        0    0.0000
   2980 H        1023.2268  182.0343   -6.5340 H       496        0    0.0000
   2981 H        1023.3581  184.1070   -5.0960 H       496        0    0.0000
   2982 H        1022.9601  183.1450   -3.6767 H       496        0    0.0000
   2983 C        1024.9644  182.7707   -4.4601 C.3     497        0    0.0000
   2984 C        1025.3617  182.7360   -2.9803 C.3     497        0    0.0000
   2985 H        1025.1785  181.8028   -4.9299 H       497        0    0.0000
   2986 H        1025.5636  183.5191   -4.9931 H       497        0    0.0000
   2987 H        1025.2893  183.7416   -2.5476 H       497        0    0.0000
   2988 H        1024.6658  182.1006   -2.4187 H       497        0    0.0000
   2989 C        1026.8193  182.1988   -2.7690 C.3     498        0    0.0000
   2990 C        1027.8439  183.3320   -2.6450 C.3     498        0    0.0000
   2991 H        1026.8385  181.5740   -1.8675 H       498        0    0.0000
   2992 H        1027.0808  181.5457   -3.6107 H       498        0    0.0000
   2993 H        1027.8058  183.9724   -3.5350 H       498        0    0.0000
   2994 H        1027.5969  183.9699   -1.7872 H       498        0    0.0000
   2995 C        1029.3060  182.7946   -2.4710 C.3     499        0    0.0000
   2996 C        1030.2269  183.2360   -3.6139 C.3     499        0    0.0000
   2997 H        1029.7012  183.1493   -1.5111 H       499        0    0.0000
   2998 H        1029.2756  181.6995   -2.4139 H       499        0    0.0000
   2999 H        1029.6481  183.3565   -4.5381 H       499        0    0.0000
   3000 H        1030.6652  184.2158   -3.3867 H       499        0    0.0000
   3001 C        1031.3853  182.2119   -3.8729 C.3     500        0    0.0000
   3002 C        1032.6379  182.5315   -3.0496 C.3     500        0    0.0000
   3003 H        1031.0255  181.2033   -3.6342 H       500        0    0.0000
   3004 H        1031.6272  182.2151   -4.9428 H       500        0    0.0000
   3005 H        1033.1281  183.4301   -3.4441 H       500        0    0.0000
   3006 H        1032.3594  182.7542   -2.0120 H       500        0    0.0000
   3007 C        1033.6688  181.3505   -3.0538 C.3     501        0    0.0000
   3008 C        1034.9288  181.6766   -2.2446 C.3     501        0    0.0000
   3009 H        1033.1821  180.4550   -2.6478 H       501        0    0.0000
   3010 H        1033.9377  181.1196   -4.0920 H       501        0    0.0000
   3011 H        1035.0304  182.7627   -2.1279 H       501        0    0.0000
   3012 H        1034.8459  181.2576   -1.2341 H       501        0    0.0000
   3013 C        1036.2290  181.1171   -2.9184 C.3     502        0    0.0000
   3014 C        1037.5031  181.6770   -2.2764 C.3     502        0    0.0000
   3015 H        1036.2216  180.0224   -2.8466 H       502        0    0.0000
   3016 H        1036.2070  181.3628   -3.9873 H       502        0    0.0000
   3017 H        1038.2338  181.9346   -3.0532 H       502        0    0.0000
   3018 H        1037.2760  182.6051   -1.7372 H       502        0    0.0000
   3019 C        1038.1617  180.6619   -1.2799 C.3     503        0    0.0000
   3020 C        1039.4210  181.2320   -0.6178 C.3     503        0    0.0000
   3021 H        1037.4249  180.3891   -0.5143 H       503        0    0.0000
   3022 H        1038.4067  179.7410   -1.8236 H       503        0    0.0000
   3023 H        1039.4054  182.3282   -0.6612 H       503        0    0.0000
   3024 H        1039.4440  180.9590    0.4444 H       503        0    0.0000
   3025 C        1040.7355  180.7182   -1.3003 C.3     504        0    0.0000
   3026 C        1041.9824  181.0236   -0.4630 C.3     504        0    0.0000
   3027 H        1040.6489  179.6371   -1.4655 H       504        0    0.0000
   3028 H        1040.8245  181.1821   -2.2904 H       504        0    0.0000
   3029 H        1042.3785  182.0125   -0.7252 H       504        0    0.0000
   3030 H        1041.7207  181.0613    0.6018 H       504        0    0.0000
   3031 C        1043.1119  179.9562   -0.6681 C.3     505        0    0.0000
   3032 C        1044.5081  180.5288   -0.3994 C.3     505        0    0.0000
   3033 H        1042.9198  179.1056   -0.0026 H       505        0    0.0000
   3034 H        1043.0538  179.5727   -1.6944 H       505        0    0.0000
   3035 H        1044.6692  181.4280   -1.0070 H       505        0    0.0000
   3036 H        1044.5919  180.8385    0.6497 H       505        0    0.0000
   3037 C        1045.6445  179.4958   -0.7139 C.3     506        0    0.0000
   3038 C        1047.0394  180.1262   -0.6388 C.3     506        0    0.0000
   3039 H        1045.5702  178.6615   -0.0054 H       506        0    0.0000
   3040 H        1045.4745  179.0765   -1.7134 H       506        0    0.0000
   3041 H        1047.1746  180.8400   -1.4608 H       506        0    0.0000
   3042 H        1047.1455  180.6952    0.2932 H       506        0    0.0000
   3043 C        1048.1809  179.0536   -0.7084 C.3     507        0    0.0000
   3044 C        1049.5349  179.6166   -0.2625 C.3     507        0    0.0000
   3045 H        1047.9025  178.1998   -0.0782 H       507        0    0.0000
   3046 H        1048.2500  178.6771   -1.7364 H       507        0    0.0000
   3047 H        1049.6857  180.6157   -0.6895 H       507        0    0.0000
   3048 H        1049.5526  179.7341    0.8281 H       507        0    0.0000
   3049 C        1050.7305  178.6978   -0.6912 C.3     508        0    0.0000
   3050 C        1052.0900  179.3625   -0.4484 C.3     508        0    0.0000
   3051 H        1050.6685  177.7542   -0.1350 H       508        0    0.0000
   3052 H        1050.6194  178.4455   -1.7531 H       508        0    0.0000
   3053 H        1052.0997  180.3689   -0.8849 H       508        0    0.0000
   3054 H        1052.2621  179.4845    0.6282 H       508        0    0.0000
   3055 C        1053.2733  178.5352   -1.0588 C.3     509        0    0.0000
   3056 C        1054.4961  178.5021   -0.1353 C.3     509        0    0.0000
   3057 H        1052.9249  177.5143   -1.2586 H       509        0    0.0000
   3058 H        1053.5459  178.9704   -2.0283 H       509        0    0.0000
   3059 H        1054.9631  179.4938   -0.0939 H       509        0    0.0000
   3060 H        1054.1877  178.2561    0.8884 H       509        0    0.0000
   3061 C        1055.5671  177.4582   -0.6049 C.3     510        0    0.0000
   3062 C        1056.9957  177.9017   -0.2710 C.3     510        0    0.0000
   3063 H        1055.3522  176.4930   -0.1299 H       510        0    0.0000
   3064 H        1055.4630  177.3073   -1.6866 H       510        0    0.0000
   3065 H        1057.2024  178.8782   -0.7261 H       510        0    0.0000
   3066 H        1057.1064  178.0294    0.8130 H       510        0    0.0000
   3067 C        1058.0690  176.8740   -0.7708 C.3     511        0    0.0000
   3068 C        1059.4967  177.4155   -0.6400 C.3     511        0    0.0000
   3069 H        1057.9645  175.9457   -0.1954 H       511        0    0.0000
   3070 H        1057.8566  176.6217   -1.8171 H       511        0    0.0000
   3071 H        1059.5818  178.3804   -1.1550 H       511        0    0.0000
   3072 H        1059.7343  177.5995    0.4151 H       511        0    0.0000
   3073 C        1060.5624  176.4305   -1.2333 C.3     512        0    0.0000
   3074 C        1061.9698  176.7021   -0.6908 C.3     512        0    0.0000
   3075 H        1060.2614  175.4016   -1.0000 H       512        0    0.0000
   3076 H        1060.5568  176.5201   -2.3266 H       512        0    0.0000
   3077 H        1062.3129  177.6927   -1.0141 H       512        0    0.0000
   3078 H        1061.9539  176.7166    0.4060 H       512        0    0.0000
   3079 C        1063.0076  175.6278   -1.1669 C.3     513        0    0.0000
   3080 C        1064.4526  176.1254   -1.0523 C.3     513        0    0.0000
   3081 H        1062.8744  174.7180   -0.5686 H       513        0    0.0000
   3082 H        1062.7842  175.3568   -2.2063 H       513        0    0.0000
   3083 H        1064.6185  176.9616   -1.7429 H       513        0    0.0000
   3084 H        1064.6390  176.5096   -0.0418 H       513        0    0.0000
   3085 C        1065.4958  174.9977   -1.3647 C.3     514        0    0.0000
   3086 C        1066.5022  175.4193   -2.4410 C.3     514        0    0.0000
   3087 H        1066.0227  174.7371   -0.4385 H       514        0    0.0000
   3088 H        1064.9576  174.0970   -1.6851 H       514        0    0.0000
   3089 H        1066.0083  176.0484   -3.1920 H       514        0    0.0000
   3090 H        1067.2980  176.0281   -1.9942 H       514        0    0.0000
   3091 C        1067.1520  174.1882   -3.1616 C.3     515        0    0.0000
   3092 C        1068.6675  174.1203   -2.9425 C.3     515        0    0.0000
   3093 H        1066.6770  173.2710   -2.7920 H       515        0    0.0000
   3094 H        1066.9293  174.2481   -4.2341 H       515        0    0.0000
   3095 H        1069.1244  175.0915   -3.1700 H       515        0    0.0000
   3096 H        1068.8860  173.9086   -1.8885 H       515        0    0.0000
   3097 C        1069.3475  173.0217   -3.8302 C.3     516        0    0.0000
   3098 C        1070.6250  172.4667   -3.1905 C.3     516        0    0.0000
   3099 H        1068.6290  172.2103   -4.0007 H       516        0    0.0000
   3100 H        1069.5754  173.4523   -4.8131 H       516        0    0.0000
   3101 H        1071.2843  173.2908   -2.8910 H       516        0    0.0000
   3102 H        1070.3777  171.9128   -2.2763 H       516        0    0.0000
   3103 C        1071.4108  171.5175   -4.1596 C.3     517        0    0.0000
   3104 C        1072.8674  171.3212   -3.7257 C.3     517        0    0.0000
   3105 H        1070.8965  170.5493   -4.2002 H       517        0    0.0000
   3106 H        1071.3732  171.9369   -5.1727 H       517        0    0.0000
   3107 H        1073.2389  172.2286   -3.2334 H       517        0    0.0000
   3108 H        1072.9344  170.5124   -2.9875 H       517        0    0.0000
   3109 C        1073.8066  170.9815   -4.9340 C.3     518        0    0.0000
   3110 C        1075.0129  170.1353   -4.5121 C.3     518        0    0.0000
   3111 H        1073.2235  170.4512   -5.6970 H       518        0    0.0000
   3112 H        1074.1464  171.9187   -5.3921 H       518        0    0.0000
   3113 H        1075.5714  170.6462   -3.7181 H       518        0    0.0000
   3114 H        1074.6741  169.1793   -4.0941 H       518        0    0.0000
   3115 C        1075.9845  169.8478   -5.7084 C.3     519        0    0.0000
   3116 C        1077.1062  168.8763   -5.3251 C.3     519        0    0.0000
   3117 H        1075.4039  169.4404   -6.5453 H       519        0    0.0000
   3118 H        1076.4111  170.7977   -6.0536 H       519        0    0.0000
   3119 H        1077.3722  169.0069   -4.2687 H       519        0    0.0000
   3120 H        1076.7620  167.8409   -5.4374 H       519        0    0.0000
   3121 C        1078.3920  169.0788   -6.1987 C.3     520        0    0.0000
   3122 C        1079.2958  167.8409   -6.1976 C.3     520        0    0.0000
   3123 H        1078.0880  169.3217   -7.2244 H       520        0    0.0000
   3124 H        1078.9438  169.9477   -5.8195 H       520        0    0.0000
   3125 H        1080.0322  167.9136   -5.3877 H       520        0    0.0000
   3126 H        1078.7003  166.9405   -6.0020 H       520        0    0.0000
   3127 C        1080.0555  167.6588   -7.5566 C.3     521        0    0.0000
   3128 C        1081.1624  166.6023   -7.4663 C.3     521        0    0.0000
   3129 H        1079.3313  167.3795   -8.3319 H       521        0    0.0000
   3130 H        1080.4811  168.6246   -7.8560 H       521        0    0.0000
   3131 H        1082.0880  166.9885   -7.9104 H       521        0    0.0000
   3132 H        1081.3859  166.3807   -6.4153 H       521        0    0.0000
   3133 C        1080.7715  165.2689   -8.1919 C.3     522        0    0.0000
   3134 C        1081.9814  164.3569   -8.4231 C.3     522        0    0.0000
   3135 H        1080.0168  164.7471   -7.5903 H       522        0    0.0000
   3136 H        1080.2964  165.5137   -9.1499 H       522        0    0.0000
   3137 H        1081.6959  163.3082   -8.2739 H       522        0    0.0000
   3138 H        1082.3259  164.4449   -9.4609 H       522        0    0.0000
   3139 C        1083.1740  164.6972   -7.4642 C.3     523        0    0.0000
   3140 C        1084.4705  163.9915   -7.8766 C.3     523        0    0.0000
   3141 H        1083.3230  165.7841   -7.4571 H       523        0    0.0000
   3142 H        1082.8983  164.4104   -6.4417 H       523        0    0.0000
   3143 H        1085.1089  164.6796   -8.4445 H       523        0    0.0000
   3144 H        1085.0387  163.6976   -6.9853 H       523        0    0.0000
   3145 C        1084.2017  162.7163   -8.7477 C.3     524        0    0.0000
   3146 C        1085.4988  162.0662   -9.2416 C.3     524        0    0.0000
   3147 H        1083.6232  161.9979   -8.1537 H       524        0    0.0000
   3148 H        1083.5730  162.9975   -9.6017 H       524        0    0.0000
   3149 H        1086.3096  162.2541   -8.5268 H       524        0    0.0000
   3150 H        1085.3756  160.9777   -9.2994 H       524        0    0.0000
   3151 C        1085.9326  162.6012  -10.6498 C.3     525        0    0.0000
   3152 C        1087.3146  162.0859  -11.0665 C.3     525        0    0.0000
   3153 H        1085.1802  162.3006  -11.3894 H       525        0    0.0000
   3154 H        1085.9314  163.6980  -10.6271 H       525        0    0.0000
   3155 H        1087.7953  162.8033  -11.7430 H       525        0    0.0000
   3156 H        1087.9642  161.9981  -10.1869 H       525        0    0.0000
   3157 C        1087.2386  160.6919  -11.7796 C.3     526        0    0.0000
   3158 C        1088.5275  159.8804  -11.6075 C.3     526        0    0.0000
   3159 H        1086.3856  160.1335  -11.3745 H       526        0    0.0000
   3160 H        1087.0337  160.8507  -12.8456 H       526        0    0.0000
   3161 H        1089.0951  160.2542  -10.7463 H       526        0    0.0000
   3162 H        1088.2860  158.8317  -11.3945 H       526        0    0.0000
   3163 C        1089.4417  159.9403  -12.8796 C.3     527        0    0.0000
   3164 C        1090.7357  159.1383  -12.7031 C.3     527        0    0.0000
   3165 H        1088.8767  159.5588  -13.7392 H       527        0    0.0000
   3166 H        1089.6760  160.9897  -13.0975 H       527        0    0.0000
   3167 H        1091.5852  159.7011  -13.1093 H       527        0    0.0000
   3168 H        1090.9407  158.9849  -11.6364 H       527        0    0.0000
   3169 C        1090.6702  157.7412  -13.4112 C.3     528        0    0.0000
   3170 C        1092.0404  157.0576  -13.4752 C.3     528        0    0.0000
   3171 H        1089.9570  157.1049  -12.8724 H       528        0    0.0000
   3172 H        1090.2694  157.8763  -14.4234 H       528        0    0.0000
   3173 H        1092.8035  157.7745  -13.8026 H       528        0    0.0000
   3174 H        1092.3373  156.7159  -12.4759 H       528        0    0.0000
   3175 C        1092.0475  155.8310  -14.4514 C.3     529        0    0.0000
   3176 C        1093.4578  155.2725  -14.6721 C.3     529        0    0.0000
   3177 H        1091.3936  155.0504  -14.0433 H       529        0    0.0000
   3178 H        1091.6108  156.1389  -15.4094 H       529        0    0.0000
   3179 H        1094.1151  156.0565  -15.0683 H       529        0    0.0000
   3180 H        1093.8898  154.9529  -13.7157 H       529        0    0.0000
   3181 C        1093.4670  154.0571  -15.6621 C.3     530        0    0.0000
   3182 C        1094.8627  153.4422  -15.8140 C.3     530        0    0.0000
   3183 H        1092.7600  153.3005  -15.2997 H       530        0    0.0000
   3184 H        1093.0959  154.3932  -16.6382 H       530        0    0.0000
   3185 H        1095.4229  153.5443  -14.8763 H       530        0    0.0000
   3186 H        1094.7800  152.3670  -16.0160 H       530        0    0.0000
   3187 C        1095.6844  154.1117  -16.9690 C.3     531        0    0.0000
   3188 C        1097.1748  153.7602  -16.9007 C.3     531        0    0.0000
   3189 H        1095.2664  153.7922  -17.9316 H       531        0    0.0000
   3190 H        1095.5515  155.1992  -16.9130 H       531        0    0.0000
   3191 H        1097.7570  154.4728  -17.4979 H       531        0    0.0000
   3192 H        1097.5348  153.8467  -15.8680 H       531        0    0.0000
   3193 C        1097.4674  152.3096  -17.4180 C.3     532        0    0.0000
   3194 C        1098.9417  151.9221  -17.2575 C.3     532        0    0.0000
   3195 H        1096.8312  151.6037  -16.8700 H       532        0    0.0000
   3196 H        1097.1742  152.2446  -18.4731 H       532        0    0.0000
   3197 H        1099.5835  152.6910  -17.7051 H       532        0    0.0000
   3198 H        1099.2040  151.8729  -16.1934 H       532        0    0.0000
   3199 C        1099.2688  150.5409  -17.9230 C.3     533        0    0.0000
   3200 C        1100.7462  150.1606  -17.7759 C.3     533        0    0.0000
   3201 H        1098.6348  149.7701  -17.4677 H       533        0    0.0000
   3202 H        1098.9957  150.5865  -18.9847 H       533        0    0.0000
   3203 H        1101.3828  150.9958  -18.0932 H       533        0    0.0000
   3204 H        1100.9817  149.9675  -16.7220 H       533        0    0.0000
   3205 C        1101.1199  148.8922  -18.6179 C.3     534        0    0.0000
   3206 C        1102.5564  148.9502  -19.1493 C.3     534        0    0.0000
   3207 H        1100.9858  148.0007  -17.9927 H       534        0    0.0000
   3208 H        1100.4135  148.8009  -19.4523 H       534        0    0.0000
   3209 H        1102.7212  149.8933  -19.6852 H       534        0    0.0000
   3210 H        1103.2672  148.9339  -18.3142 H       534        0    0.0000
   3211 C        1102.8817  147.7577  -20.1135 C.3     535        0    0.0000
   3212 C        1104.3872  147.5973  -20.3515 C.3     535        0    0.0000
   3213 H        1102.4679  146.8354  -19.6873 H       535        0    0.0000
   3214 H        1102.3655  147.9233  -21.0673 H       535        0    0.0000
   3215 H        1104.8263  148.5590  -20.6446 H       535        0    0.0000
   3216 H        1104.8848  147.2940  -19.4220 H       535        0    0.0000
   3217 C        1104.7035  146.5379  -21.4629 C.3     536        0    0.0000
   3218 C        1106.1521  146.0420  -21.3973 C.3     536        0    0.0000
   3219 H        1104.0115  145.6936  -21.3537 H       536        0    0.0000
   3220 H        1104.5028  146.9846  -22.4446 H       536        0    0.0000
   3221 H        1106.8384  146.8945  -21.3224 H       536        0    0.0000
   3222 H        1106.3020  145.4366  -20.4948 H       536        0    0.0000
   3223 C        1106.5444  145.1861  -22.6507 C.3     537        0    0.0000
   3224 C        1107.8372  144.3927  -22.4308 C.3     537        0    0.0000
   3225 H        1105.7188  144.5025  -22.8847 H       537        0    0.0000
   3226 H        1106.6550  145.8536  -23.5142 H       537        0    0.0000
   3227 H        1108.6047  145.0395  -21.9879 H       537        0    0.0000
   3228 H        1107.6616  143.5779  -21.7173 H       537        0    0.0000
   3229 C        1108.3958  143.7855  -23.7638 C.3     538        0    0.0000
   3230 C        1109.4418  142.6941  -23.5114 C.3     538        0    0.0000
   3231 H        1107.5592  143.3777  -24.3444 H       538        0    0.0000
   3232 H        1108.8319  144.5931  -24.3646 H       538        0    0.0000
   3233 H        1110.1675  143.0347  -22.7625 H       538        0    0.0000
   3234 H        1108.9596  141.7992  -23.0989 H       538        0    0.0000
   3235 C        1110.2123  142.2964  -24.8174 C.3     539        0    0.0000
   3236 C        1110.8569  140.9098  -24.7122 C.3     539        0    0.0000
   3237 H        1109.5133  142.3231  -25.6625 H       539        0    0.0000
   3238 H        1110.9800  143.0537  -25.0195 H       539        0    0.0000
   3239 H        1111.2434  140.7507  -23.6980 H       539        0    0.0000
   3240 H        1110.1046  140.1309  -24.8884 H       539        0    0.0000
   3241 C        1112.0294  140.7206  -25.7354 C.3     540        0    0.0000
   3242 C        1112.4060  139.2465  -25.9211 C.3     540        0    0.0000
   3243 H        1111.7333  141.1572  -26.6972 H       540        0    0.0000
   3244 H        1112.8994  141.2899  -25.3854 H       540        0    0.0000
   3245 H        1112.5039  138.7573  -24.9441 H       540        0    0.0000
   3246 H        1111.6082  138.7193  -26.4589 H       540        0    0.0000
   3247 C        1113.7489  139.0714  -26.7108 C.3     541        0    0.0000
   3248 C        1114.0593  137.6006  -27.0099 C.3     541        0    0.0000
   3249 H        1113.6855  139.6404  -27.6466 H       541        0    0.0000
   3250 H        1114.5635  139.5164  -26.1260 H       541        0    0.0000
   3251 H        1114.0520  137.0180  -26.0803 H       541        0    0.0000
   3252 H        1113.2802  137.1753  -27.6545 H       541        0    0.0000
   3253 C        1115.4501  137.4176  -27.7101 C.3     542        0    0.0000
   3254 C        1115.6887  135.9716  -28.1588 C.3     542        0    0.0000
   3255 H        1115.5029  138.0927  -28.5731 H       542        0    0.0000
   3256 H        1116.2394  137.7311  -27.0158 H       542        0    0.0000
   3257 H        1115.7192  135.3072  -27.2863 H       542        0    0.0000
   3258 H        1114.8557  135.6300  -28.7858 H       542        0    0.0000
   3259 C        1117.0250  135.8117  -28.9625 C.3     543        0    0.0000
   3260 C        1117.2781  134.3606  -29.3861 C.3     543        0    0.0000
   3261 H        1116.9856  136.4601  -29.8466 H       543        0    0.0000
   3262 H        1117.8553  136.1731  -28.3435 H       543        0    0.0000
   3263 H        1117.9519  133.8722  -28.6713 H       543        0    0.0000
   3264 H        1116.3383  133.7948  -29.3701 H       543        0    0.0000
   3265 C        1117.9039  134.2607  -30.8199 C.3     544        0    0.0000
   3266 C        1118.6605  132.9450  -31.0330 C.3     544        0    0.0000
   3267 H        1117.1028  134.3586  -31.5631 H       544        0    0.0000
   3268 H        1118.5795  135.1118  -30.9708 H       544        0    0.0000
   3269 H        1119.6187  132.9712  -30.4993 H       544        0    0.0000
   3270 H        1118.0880  132.1093  -30.6119 H       544        0    0.0000
   3271 C        1118.9347  132.6562  -32.5493 C.3     545        0    0.0000
   3272 C        1119.8413  131.4375  -32.7539 C.3     545        0    0.0000
   3273 H        1117.9756  132.5013  -33.0588 H       545        0    0.0000
   3274 H        1119.3917  133.5451  -33.0016 H       545        0    0.0000
   3275 H        1120.8802  131.7607  -32.8934 H       545        0    0.0000
   3276 H        1119.8264  130.8031  -31.8589 H       545        0    0.0000
   3277 C        1119.4094  130.5766  -33.9906 C.3     546        0    0.0000
   3278 C        1120.3849  129.4273  -34.2675 C.3     546        0    0.0000
   3279 H        1118.4022  130.1804  -33.8113 H       546        0    0.0000
   3280 H        1119.3389  131.2300  -34.8690 H       546        0    0.0000
   3281 H        1119.8346  128.4846  -34.3754 H       546        0    0.0000
   3282 H        1120.9071  129.5978  -35.2172 H       546        0    0.0000
   3283 C        1121.4491  129.2637  -33.1281 C.3     547        0    0.0000
   3284 C        1122.5347  128.2438  -33.4892 C.3     547        0    0.0000
   3285 H        1121.9037  130.2414  -32.9259 H       547        0    0.0000
   3286 H        1120.9370  128.9580  -32.2073 H       547        0    0.0000
   3287 H        1123.4652  128.7620  -33.7518 H       547        0    0.0000
   3288 H        1122.7603  127.6115  -32.6215 H       547        0    0.0000
   3289 C        1122.1121  127.3254  -34.6873 C.3     548        0    0.0000
   3290 C        1123.2327  126.3686  -35.1091 C.3     548        0    0.0000
   3291 H        1121.2198  126.7559  -34.3988 H       548        0    0.0000
   3292 H        1121.8207  127.9600  -35.5336 H       548        0    0.0000
   3293 H        1123.9508  126.8910  -35.7532 H       548        0    0.0000
   3294 H        1123.7894  126.0292  -34.2269 H       548        0    0.0000
   3295 C        1122.6863  125.1145  -35.8749 C.3     549        0    0.0000
   3296 C        1123.7627  124.4460  -36.7374 C.3     549        0    0.0000
   3297 H        1122.2915  124.3982  -35.1439 H       549        0    0.0000
   3298 H        1121.8406  125.4237  -36.5016 H       549        0    0.0000
   3299 H        1123.2937  123.8687  -37.5438 H       549        0    0.0000
   3300 H        1124.3870  125.2094  -37.2183 H       549        0    0.0000
   3301 C        1124.6847  123.4917  -35.9027 C.3     550        0    0.0000
   3302 C        1126.0372  123.2502  -36.5820 C.3     550        0    0.0000
   3303 H        1124.8362  123.9277  -34.9075 H       550        0    0.0000
   3304 H        1124.1633  122.5382  -35.7530 H       550        0    0.0000
   3305 H        1126.3408  124.1423  -37.1435 H       550        0    0.0000
   3306 H        1126.8121  123.0751  -35.8255 H       550        0    0.0000
   3307 C        1126.0005  122.0258  -37.5603 C.3     551        0    0.0000
   3308 C        1127.2744  121.9195  -38.4059 C.3     551        0    0.0000
   3309 H        1125.8606  121.1091  -36.9743 H       551        0    0.0000
   3310 H        1125.1233  122.1202  -38.2121 H       551        0    0.0000
   3311 H        1127.3226  122.7513  -39.1197 H       551        0    0.0000
   3312 H        1128.1600  122.0036  -37.7640 H       551        0    0.0000
   3313 C        1127.3508  120.5688  -39.1979 C.3     552        0    0.0000
   3314 C        1128.3641  120.6255  -40.3465 C.3     552        0    0.0000
   3315 H        1127.6171  119.7647  -38.5007 H       552        0    0.0000
   3316 H        1126.3533  120.3305  -39.5877 H       552        0    0.0000
   3317 H        1128.0823  121.4112  -41.0584 H       552        0    0.0000
   3318 H        1129.3558  120.8913  -39.9603 H       552        0    0.0000
   3319 C        1128.4692  119.2625  -41.1137 C.3     553        0    0.0000
   3320 C        1129.9125  118.7536  -41.1989 C.3     553        0    0.0000
   3321 H        1127.8384  118.5217  -40.6066 H       553        0    0.0000
   3322 H        1128.0555  119.3912  -42.1216 H       553        0    0.0000
   3323 H        1130.4957  119.3889  -41.8769 H       553        0    0.0000
   3324 H        1130.3929  118.8186  -40.2148 H       553        0    0.0000
   3325 C        1129.9910  117.2712  -41.7026 C.3     554        0    0.0000
   3326 C        1131.2072  117.0272  -42.6027 C.3     554        0    0.0000
   3327 H        1130.0267  116.6036  -40.8328 H       554        0    0.0000
   3328 H        1129.0676  117.0327  -42.2450 H       554        0    0.0000
   3329 H        1131.1970  117.7278  -43.4468 H       554        0    0.0000
   3330 H        1132.1322  117.2191  -42.0451 H       554        0    0.0000
   3331 C        1131.2487  115.5632  -43.1616 C.3     555        0    0.0000
   3332 C        1132.6522  115.1575  -43.6243 C.3     555        0    0.0000
   3333 H        1130.8966  114.8768  -42.3815 H       555        0    0.0000
   3334 H        1130.5399  115.4827  -43.9951 H       555        0    0.0000
   3335 H        1132.9590  115.7729  -44.4792 H       555        0    0.0000
   3336 H        1133.3804  115.3436  -42.8250 H       555        0    0.0000
   3337 C        1132.7289  113.6468  -44.0359 C.3     556        0    0.0000
   3338 C        1133.8461  113.3769  -45.0497 C.3     556        0    0.0000
   3339 H        1132.8849  113.0421  -43.1340 H       556        0    0.0000
   3340 H        1131.7604  113.3447  -44.4540 H       556        0    0.0000
   3341 H        1133.6489  113.9223  -45.9809 H       556        0    0.0000
   3342 H        1134.8030  113.7493  -44.6630 H       556        0    0.0000
   3343 C        1133.9938  111.8514  -45.3791 C.3     557        0    0.0000
   3344 C        1135.2391  111.5571  -46.2225 C.3     557        0    0.0000
   3345 H        1134.0350  111.2888  -44.4381 H       557        0    0.0000
   3346 H        1133.0933  111.5150  -45.9078 H       557        0    0.0000
   3347 H        1135.1108  111.9581  -47.2355 H       557        0    0.0000
   3348 H        1136.1129  112.0620  -45.7921 H       557        0    0.0000
   3349 C        1135.5406  110.0219  -46.3213 C.3     558        0    0.0000
   3350 C        1136.4908  109.6897  -47.4771 C.3     558        0    0.0000
   3351 H        1135.9722  109.6844  -45.3708 H       558        0    0.0000
   3352 H        1134.5933  109.4828  -46.4463 H       558        0    0.0000
   3353 H        1136.0015  109.8957  -48.4373 H       558        0    0.0000
   3354 H        1137.3782  110.3330  -47.4313 H       558        0    0.0000
   3355 C        1136.9513  108.1914  -47.4559 C.3     559        0    0.0000
   3356 C        1137.9910  107.8878  -48.5403 C.3     559        0    0.0000
   3357 H        1137.3629  107.9620  -46.4653 H       559        0    0.0000
   3358 H        1136.0717  107.5492  -47.5878 H       559        0    0.0000
   3359 H        1137.7303  108.4116  -49.4684 H       559        0    0.0000
   3360 H        1138.9752  108.2620  -48.2330 H       559        0    0.0000
   3361 C        1138.1050  106.3535  -48.8411 C.3     560        0    0.0000
   3362 C        1139.2634  106.0324  -49.7919 C.3     560        0    0.0000
   3363 H        1138.2362  105.8163  -47.8936 H       560        0    0.0000
   3364 H        1137.1576  106.0061  -49.2715 H       560        0    0.0000
   3365 H        1139.1415  106.5836  -50.7327 H       560        0    0.0000
   3366 H        1140.2128  106.3637  -49.3535 H       560        0    0.0000
   3367 C        1139.3619  104.5011  -50.1126 C.3     561        0    0.0000
   3368 C        1140.2783  104.2157  -51.3076 C.3     561        0    0.0000
   3369 H        1139.7302  103.9764  -49.2223 H       561        0    0.0000
   3370 H        1138.3540  104.1159  -50.3109 H       561        0    0.0000
   3371 H        1139.8495  104.6454  -52.2215 H       561        0    0.0000
   3372 H        1141.2520  104.6989  -51.1589 H       561        0    0.0000
   3373 C        1140.5046  102.6803  -51.5291 C.3     562        0    0.0000
   3374 C        1141.5670  102.3979  -52.5971 C.3     562        0    0.0000
   3375 H        1140.7997  102.2252  -50.5754 H       562        0    0.0000
   3376 H        1139.5510  102.2201  -51.8161 H       562        0    0.0000
   3377 H        1141.2008  102.7089  -53.5833 H       562        0    0.0000
   3378 H        1142.4692  102.9884  -52.3954 H       562        0    0.0000
   3379 C        1141.9591  100.8813  -52.6587 C.3     563        0    0.0000
   3380 C        1142.7601  100.5392  -53.9199 C.3     563        0    0.0000
   3381 H        1142.5410  100.6298  -51.7636 H       563        0    0.0000
   3382 H        1141.0437  100.2776  -52.6193 H       563        0    0.0000
   3383 H        1142.1024  100.5503  -54.7978 H       563        0    0.0000
   3384 H        1143.5308  101.3004  -54.0939 H       563        0    0.0000
   3385 C        1143.4500   99.1349  -53.8228 C.3     564        0    0.0000
   3386 C        1144.0964   98.7126  -55.1467 C.3     564        0    0.0000
   3387 H        1144.2057   99.1663  -53.0284 H       564        0    0.0000
   3388 H        1142.7014   98.3936  -53.5164 H       564        0    0.0000
   3389 H        1143.3253   98.5745  -55.9147 H       564        0    0.0000
   3390 H        1144.7638   99.5045  -55.5090 H       564        0    0.0000
   3391 C        1144.9169   97.3838  -55.0101 C.3     565        0    0.0000
   3392 C        1145.4941   96.9170  -56.3509 C.3     565        0    0.0000
   3393 H        1145.7262   97.5408  -54.2862 H       565        0    0.0000
   3394 H        1144.2651   96.6074  -54.5905 H       565        0    0.0000
   3395 H        1144.6930   96.8286  -57.0951 H       565        0    0.0000
   3396 H        1146.2010   97.6625  -56.7360 H       565        0    0.0000
   3397 C        1146.2291   95.5374  -56.2333 C.3     566        0    0.0000
   3398 C        1146.7500   95.0395  -57.5861 C.3     566        0    0.0000
   3399 H        1147.0603   95.6387  -55.5245 H       566        0    0.0000
   3400 H        1145.5364   94.8031  -55.8036 H       566        0    0.0000
   3401 H        1146.1107   95.4128  -58.3958 H       566        0    0.0000
   3402 H        1147.7561   95.4360  -57.7709 H       566        0    0.0000
   3403 C        1146.8015   93.4746  -57.6635 C.3     567        0    0.0000
   3404 C        1147.7362   92.9783  -58.7722 C.3     567        0    0.0000
   3405 H        1147.1288   93.0831  -56.6923 H       567        0    0.0000
   3406 H        1145.7856   93.0952  -57.8299 H       567        0    0.0000
   3407 H        1147.3812   93.3301  -59.7488 H       567        0    0.0000
   3408 H        1148.7407   93.3966  -58.6326 H       567        0    0.0000
   3409 C        1147.8402   91.4144  -58.8057 C.3     568        0    0.0000
   3410 C        1148.5190   90.9046  -60.0818 C.3     568        0    0.0000
   3411 H        1148.3979   91.0781  -57.9230 H       568        0    0.0000
   3412 H        1146.8315   90.9912  -58.7214 H       568        0    0.0000
   3413 H        1147.8435   91.0195  -60.9388 H       568        0    0.0000
   3414 H        1149.4099   91.5063  -60.3001 H       568        0    0.0000
   3415 C        1148.9410   89.3990  -59.9695 C.3     569        0    0.0000
   3416 C        1149.7278   88.9233  -61.1958 C.3     569        0    0.0000
   3417 H        1149.5431   89.2673  -59.0620 H       569        0    0.0000
   3418 H        1148.0392   88.7877  -59.8407 H       569        0    0.0000
   3419 H        1149.0880   88.9499  -62.0867 H       569        0    0.0000
   3420 H        1150.5675   89.6018  -61.3905 H       569        0    0.0000
   3421 C        1150.2845   87.4688  -61.0168 C.3     570        0    0.0000
   3422 C        1150.9861   86.9559  -62.2793 C.3     570        0    0.0000
   3423 H        1150.9808   87.4585  -60.1691 H       570        0    0.0000
   3424 H        1149.4546   86.8027  -60.7507 H       570        0    0.0000
   3425 H        1150.3328   87.0848  -63.1513 H       570        0    0.0000
   3426 H        1151.8904   87.5459  -62.4732 H       570        0    0.0000
   3427 C        1151.3839   85.4439  -62.1653 C.3     571        0    0.0000
   3428 C        1152.1619   84.9539  -63.3916 C.3     571        0    0.0000
   3429 H        1151.9846   85.3038  -61.2581 H       571        0    0.0000
   3430 H        1150.4724   84.8473  -62.0350 H       571        0    0.0000
   3431 H        1151.5828   85.1417  -64.3041 H       571        0    0.0000
   3432 H        1153.0988   85.5156  -63.4917 H       571        0    0.0000
   3433 C        1152.4960   83.4243  -63.3109 C.3     572        0    0.0000
   3434 C        1153.1296   82.8992  -64.6039 C.3     572        0    0.0000
   3435 H        1153.1727   83.2544  -62.4644 H       572        0    0.0000
   3436 H        1151.5736   82.8720  -63.0927 H       572        0    0.0000
   3437 H        1152.4762   83.1160  -65.4580 H       572        0    0.0000
   3438 H        1154.0787   83.4152  -64.7942 H       572        0    0.0000
   3439 C        1153.3959   81.3552  -64.5505 C.3     573        0    0.0000
   3440 C        1154.2255   80.8673  -65.7434 C.3     573        0    0.0000
   3441 H        1153.9110   81.1174  -63.6117 H       573        0    0.0000
   3442 H        1152.4325   80.8310  -64.5229 H       573        0    0.0000
   3443 H        1154.9218   81.6521  -66.0635 H       573        0    0.0000
   3444 H        1154.8364   80.0051  -65.4491 H       573        0    0.0000
   3445 C        1153.3292   80.4587  -66.9629 C.3     574        0    0.0000
   3446 C        1154.0955   79.6197  -67.9916 C.3     574        0    0.0000
   3447 H        1152.4615   79.8991  -66.5923 H       574        0    0.0000
   3448 H        1152.9388   81.3686  -67.4354 H       574        0    0.0000
   3449 H        1153.8672   78.5555  -67.8540 H       574        0    0.0000
   3450 H        1153.7729   79.8824  -69.0067 H       574        0    0.0000
   3451 C        1155.6465   79.8214  -67.8860 C.3     575        0    0.0000
   3452 C        1156.4266   78.6997  -68.5802 C.3     575        0    0.0000
   3453 H        1155.9080   80.7908  -68.3282 H       575        0    0.0000
   3454 H        1155.9249   79.8733  -66.8261 H       575        0    0.0000
   3455 H        1156.1920   78.6856  -69.6518 H       575        0    0.0000
   3456 H        1157.5049   78.8835  -68.4960 H       575        0    0.0000
   3457 C        1156.1057   77.2899  -67.9743 C.3     576        0    0.0000
   3458 C        1156.4885   76.1489  -68.9233 C.3     576        0    0.0000
   3459 H        1156.6415   77.1836  -67.0228 H       576        0    0.0000
   3460 H        1155.0350   77.2411  -67.7399 H       576        0    0.0000
   3461 H        1155.7025   75.3837  -68.9276 H       576        0    0.0000
   3462 H        1156.5680   76.5249  -69.9507 H       576        0    0.0000
   3463 C        1157.8472   75.4756  -68.5252 C.3     577        0    0.0000
   3464 C        1158.4945   74.7346  -69.7003 C.3     577        0    0.0000
   3465 H        1158.5276   76.2487  -68.1473 H       577        0    0.0000
   3466 H        1157.6677   74.7809  -67.6953 H       577        0    0.0000
   3467 H        1158.2224   75.2191  -70.6463 H       577        0    0.0000
   3468 H        1159.5875   74.7876  -69.6222 H       577        0    0.0000
   3469 C        1158.0647   73.2285  -69.7622 C.3     578        0    0.0000
   3470 C        1158.6827   72.4967  -70.9587 C.3     578        0    0.0000
   3471 H        1158.3611   72.7374  -68.8270 H       578        0    0.0000
   3472 H        1156.9701   73.1750  -69.8130 H       578        0    0.0000
   3473 H        1159.6549   72.9393  -71.2091 H       578        0    0.0000
   3474 H        1158.8715   71.4472  -70.7012 H       578        0    0.0000
   3475 C        1157.7625   72.5482  -72.2267 C.3     579        0    0.0000
   3476 C        1158.4231   71.9038  -73.4505 C.3     579        0    0.0000
   3477 H        1156.8171   72.0403  -71.9985 H       579        0    0.0000
   3478 H        1157.5140   73.5951  -72.4410 H       579        0    0.0000
   3479 H        1157.6996   71.8271  -74.2716 H       579        0    0.0000
   3480 H        1159.2437   72.5359  -73.8114 H       579        0    0.0000
   3481 C        1158.9861   70.4746  -73.1380 C.3     580        0    0.0000
   3482 C        1159.7749   69.8908  -74.3154 C.3     580        0    0.0000
   3483 H        1159.6260   70.5332  -72.2487 H       580        0    0.0000
   3484 H        1158.1494   69.8133  -72.8809 H       580        0    0.0000
   3485 H        1159.1829   69.9611  -75.2363 H       580        0    0.0000
   3486 H        1160.6884   70.4746  -74.4825 H       580        0    0.0000
   3487 C        1160.1691   68.3916  -74.0813 C.3     581        0    0.0000
   3488 C        1161.2122   67.9007  -75.0912 C.3     581        0    0.0000
   3489 H        1160.5542   68.2825  -73.0598 H       581        0    0.0000
   3490 H        1159.2645   67.7741  -74.1446 H       581        0    0.0000
   3491 H        1160.7467   67.7614  -76.0748 H       581        0    0.0000
   3492 H        1161.9973   68.6563  -75.2183 H       581        0    0.0000
   3493 C        1161.8765   66.5508  -74.6506 C.3     582        0    0.0000
   3494 C        1161.9689   65.5453  -75.8037 C.3     582        0    0.0000
   3495 H        1162.8776   66.7621  -74.2547 H       582        0    0.0000
   3496 H        1161.2947   66.1235  -73.8247 H       582        0    0.0000
   3497 H        1161.0513   64.9461  -75.8545 H       582        0    0.0000
   3498 H        1162.0519   66.0762  -76.7601 H       582        0    0.0000
   3499 C        1163.1949   64.5801  -75.6535 C.3     583        0    0.0000
   3500 C        1163.4612   63.7763  -76.9309 C.3     583        0    0.0000
   3501 H        1164.0804   65.1716  -75.3900 H       583        0    0.0000
   3502 H        1163.0087   63.9000  -74.8130 H       583        0    0.0000
   3503 H        1162.7710   62.9254  -76.9907 H       583        0    0.0000
   3504 H        1163.2706   64.3990  -77.8138 H       583        0    0.0000
   3505 C        1164.9324   63.2394  -76.9992 C.3     584        0    0.0000
   3506 C        1165.1013   62.1407  -78.0545 C.3     584        0    0.0000
   3507 H        1165.6050   64.0778  -77.2182 H       584        0    0.0000
   3508 H        1165.2159   62.8579  -76.0104 H       584        0    0.0000
   3509 H        1164.7805   62.5100  -79.0365 H       584        0    0.0000
   3510 H        1166.1602   61.8704  -78.1499 H       584        0    0.0000
   3511 C        1164.2802   60.8515  -77.7066 C.3     585        0    0.0000
   3512 C        1164.3507   59.7999  -78.8195 C.3     585        0    0.0000
   3513 H        1164.6620   60.4316  -76.7677 H       585        0    0.0000
   3514 H        1163.2365   61.1356  -77.5232 H       585        0    0.0000
   3515 H        1163.6449   58.9859  -78.6130 H       585        0    0.0000
   3516 H        1164.0487   60.2437  -79.7761 H       585        0    0.0000
   3517 C        1165.7885   59.1948  -78.9748 C.3     586        0    0.0000
   3518 C        1165.8286   58.0453  -79.9878 C.3     586        0    0.0000
   3519 H        1166.4762   59.9920  -79.2831 H       586        0    0.0000
   3520 H        1166.1323   58.8439  -77.9939 H       586        0    0.0000
   3521 H        1164.9567   57.3937  -79.8520 H       586        0    0.0000
   3522 H        1165.7697   58.4418  -81.0091 H       586        0    0.0000
   3523 C        1167.1302   57.1819  -79.8554 C.3     587        0    0.0000
   3524 C        1167.1505   56.0069  -80.8393 C.3     587        0    0.0000
   3525 H        1168.0013   57.8275  -80.0224 H       587        0    0.0000
   3526 H        1167.2056   56.8114  -78.8255 H       587        0    0.0000
   3527 H        1167.8405   55.2312  -80.4846 H       587        0    0.0000
   3528 H        1166.1572   55.5443  -80.8933 H       587        0    0.0000
   3529 C        1167.5822   56.4464  -82.2808 C.3     588        0    0.0000
   3530 C        1167.5579   55.2804  -83.2753 C.3     588        0    0.0000
   3531 H        1166.9127   57.2458  -82.6222 H       588        0    0.0000
   3532 H        1168.5894   56.8784  -82.2323 H       588        0    0.0000
   3533 H        1166.6635   54.6662  -83.1130 H       588        0    0.0000
   3534 H        1167.4955   55.6627  -84.3018 H       588        0    0.0000
   3535 C        1168.8267   54.3680  -83.1522 C.3     589        0    0.0000
   3536 C        1168.6411   53.0175  -83.8528 C.3     589        0    0.0000
   3537 H        1169.6865   54.8985  -83.5797 H       589        0    0.0000
   3538 H        1169.0490   54.2129  -82.0891 H       589        0    0.0000
   3539 H        1168.1188   52.3179  -83.1887 H       589        0    0.0000
   3540 H        1168.0101   53.1386  -84.7421 H       589        0    0.0000
   3541 C        1170.0063   52.3801  -84.2852 C.3     590        0    0.0000
   3542 C        1169.8517   50.9210  -84.7285 C.3     590        0    0.0000
   3543 H        1170.4333   52.9775  -85.1002 H       590        0    0.0000
   3544 H        1170.7090   52.4454  -83.4451 H       590        0    0.0000
   3545 H        1170.4604   50.7327  -85.6217 H       590        0    0.0000
   3546 H        1170.2241   50.2487  -83.9459 H       590        0    0.0000
   3547 C        1168.3617   50.5512  -85.0455 C.3     591        0    0.0000
   3548 C        1168.2070   49.0918  -85.4874 C.3     591        0    0.0000
   3549 H        1167.7528   50.7405  -84.1528 H       591        0    0.0000
   3550 H        1167.9895   51.2229  -85.8290 H       591        0    0.0000
   3551 H        1168.7590   48.4320  -84.8067 H       591        0    0.0000
   3552 H        1167.1534   48.7915  -85.4320 H       591        0    0.0000
   3553 C        1168.7231   48.8558  -86.9488 C.3     592        0    0.0000
   3554 C        1169.3317   47.4610  -87.1317 C.3     592        0    0.0000
   3555 H        1167.8876   48.9959  -87.6458 H       592        0    0.0000
   3556 H        1169.4670   49.6253  -87.1898 H       592        0    0.0000
   3557 H        1170.0396   47.2500  -86.3204 H       592        0    0.0000
   3558 H        1168.5468   46.6971  -87.0716 H       592        0    0.0000
   3559 C        1170.0767   47.3131  -88.5032 C.3     593        0    0.0000
   3560 C        1170.5748   45.8835  -88.7424 C.3     593        0    0.0000
   3561 H        1169.3964   47.6141  -89.3094 H       593        0    0.0000
   3562 H        1170.9203   48.0139  -88.5247 H       593        0    0.0000
   3563 H        1169.7421   45.2429  -89.0583 H       593        0    0.0000
   3564 H        1171.3079   45.8722  -89.5585 H       593        0    0.0000
   3565 C        1171.2335   45.2618  -87.4630 C.3     594        0    0.0000
   3566 C        1171.3644   43.7378  -87.5592 C.3     594        0    0.0000
   3567 H        1172.2217   45.7157  -87.3178 H       594        0    0.0000
   3568 H        1170.6305   45.5330  -86.5875 H       594        0    0.0000
   3569 H        1171.4822   43.3063  -86.5575 H       594        0    0.0000
   3570 H        1170.4479   43.3074  -87.9817 H       594        0    0.0000
   3571 C        1172.5824   43.3007  -88.4440 C.3     595        0    0.0000
   3572 C        1172.6859   41.7774  -88.5782 C.3     595        0    0.0000
   3573 H        1172.4821   43.7595  -89.4353 H       595        0    0.0000
   3574 H        1173.5027   43.7028  -88.0023 H       595        0    0.0000
   3575 H        1173.6910   41.4422  -88.2937 H       595        0    0.0000
   3576 H        1171.9849   41.2906  -87.8891 H       595        0    0.0000
   3577 C        1172.3837   41.2875  -90.0363 C.3     596        0    0.0000
   3578 C        1172.6902   39.7975  -90.2235 C.3     596        0    0.0000
   3579 H        1171.3292   41.4864  -90.2647 H       596        0    0.0000
   3580 H        1172.9764   41.8848  -90.7400 H       596        0    0.0000
   3581 H        1172.1394   39.2042  -89.4833 H       596        0    0.0000
   3582 H        1172.3489   39.4645  -91.2116 H       596        0    0.0000
   3583 C        1174.2200   39.4839  -90.0854 C.3     597        0    0.0000
   3584 C        1174.5524   38.0361  -90.4630 C.3     597        0    0.0000
   3585 H        1174.7821   40.1774  -90.7228 H       597        0    0.0000
   3586 H        1174.5300   39.6839  -89.0522 H       597        0    0.0000
   3587 H        1175.0117   38.0030  -91.4587 H       597        0    0.0000
   3588 H        1175.2892   37.6242  -89.7621 H       597        0    0.0000
   3589 C        1173.2834   37.1154  -90.4610 C.3     598        0    0.0000
   3590 C        1173.6162   35.6673  -90.8369 C.3     598        0    0.0000
   3591 H        1172.8234   37.1495  -89.4657 H       598        0    0.0000
   3592 H        1172.5471   37.5266  -91.1627 H       598        0    0.0000
   3593 H        1174.6742   35.4596  -90.6344 H       598        0    0.0000
   3594 H        1173.0345   34.9744  -90.2166 H       598        0    0.0000
   3595 C        1173.3217   35.3628  -92.3462 C.3     599        0    0.0000
   3596 C        1174.1875   34.2200  -92.8881 C.3     599        0    0.0000
   3597 H        1172.2588   35.1141  -92.4559 H       599        0    0.0000
   3598 H        1173.4937   36.2749  -92.9312 H       599        0    0.0000
   3599 H        1174.5563   34.4701  -93.8906 H       599        0    0.0000
   3600 H        1175.0710   34.0834  -92.2523 H       599        0    0.0000
   3601 C        1173.4037   32.8645  -92.9618 C.3     600        0    0.0000
   3602 C        1174.3336   31.6498  -92.8672 C.3     600        0    0.0000
   3603 H        1172.6661   32.8378  -92.1501 H       600        0    0.0000
   3604 H        1172.8389   32.8334  -93.9018 H       600        0    0.0000
   3605 H        1175.3590   31.9399  -93.1274 H       600        0    0.0000
   3606 H        1174.3634   31.2785  -91.8353 H       600        0    0.0000
   3607 C        1173.8837   30.4822  -93.8114 C.3     601        0    0.0000
   3608 C        1174.9052   29.3400  -93.8498 C.3     601        0    0.0000
   3609 H        1172.9114   30.1060  -93.4700 H       601        0    0.0000
   3610 H        1173.7296   30.8831  -94.8210 H       601        0    0.0000
   3611 H        1175.9220   29.7467  -93.9141 H       601        0    0.0000
   3612 H        1174.8558   28.7600  -92.9200 H       601        0    0.0000
   3613 C        1174.6700   28.3734  -95.0614 C.3     602        0    0.0000
   3614 C        1175.6687   27.2108  -95.0793 C.3     602        0    0.0000
   3615 H        1173.6443   27.9874  -95.0119 H       602        0    0.0000
   3616 H        1174.7455   28.9486  -95.9925 H       602        0    0.0000
   3617 H        1176.6097   27.5307  -95.5432 H       602        0    0.0000
   3618 H        1175.9102   26.9068  -94.0534 H       602        0    0.0000
   3619 C        1175.1184   25.9669  -95.8586 C.3     603        0    0.0000
   3620 C        1176.1110   24.7989  -95.8635 C.3     603        0    0.0000
   3621 H        1174.1713   25.6539  -95.4015 H       603        0    0.0000
   3622 H        1174.8871   26.2683  -96.8877 H       603        0    0.0000
   3623 H        1176.9865   25.0520  -96.4739 H       603        0    0.0000
   3624 H        1176.4786   24.6135  -94.8466 H       603        0    0.0000
   3625 C        1175.4727   23.4791  -96.4184 C.3     604        0    0.0000
   3626 C        1176.3845   22.2637  -96.2177 C.3     604        0    0.0000
   3627 H        1174.5103   23.3141  -95.9180 H       604        0    0.0000
   3628 H        1175.2540   23.6133  -97.4851 H       604        0    0.0000
   3629 H        1177.4203   22.5916  -96.0662 H       604        0    0.0000
   3630 H        1176.0908   21.7186  -95.3121 H       604        0    0.0000
   3631 C        1176.3394   21.2792  -97.4369 C.3     605        0    0.0000
   3632 C        1177.1514   20.0041  -97.1843 C.3     605        0    0.0000
   3633 H        1175.2932   21.0237  -97.6464 H       605        0    0.0000
   3634 H        1176.7207   21.7984  -98.3249 H       605        0    0.0000
   3635 H        1178.1538   20.2623  -96.8212 H       605        0    0.0000
   3636 H        1176.6759   19.4051  -96.3977 H       605        0    0.0000
   3637 C        1177.2922   19.1243  -98.4742 C.3     606        0    0.0000
   3638 C        1178.0726   17.8313  -98.2129 C.3     606        0    0.0000
   3639 H        1176.2898   18.8888  -98.8527 H       606        0    0.0000
   3640 H        1177.7920   19.7147  -99.2521 H       606        0    0.0000
   3641 H        1179.1233   17.9614  -98.5006 H       606        0    0.0000
   3642 H        1178.0659   17.5981  -97.1410 H       606        0    0.0000
   3643 C        1177.4808   16.6111  -98.9992 C.3     607        0    0.0000
   3644 C        1178.2134   15.3033  -98.6792 C.3     607        0    0.0000
   3645 H        1176.4158   16.5153  -98.7540 H       607        0    0.0000
   3646 H        1177.5388   16.8213 -100.0743 H       607        0    0.0000
   3647 H        1179.2783   15.3991  -98.9244 H       607        0    0.0000
   3648 H        1178.1552   15.0931  -97.6040 H       607        0    0.0000
   3649 C        1177.6215   14.0831  -99.4653 C.3     608        0    0.0000
   3650 C        1178.2101   12.7483  -98.9950 C.3     608        0    0.0000
   3651 H        1176.5314   14.0779  -99.3417 H       608        0    0.0000
   3652 H        1177.8164   14.2238 -100.5357 H       608        0    0.0000
   3653 H        1179.1622   12.9186  -98.4776 H       608        0    0.0000
   3654 H        1177.5370   12.2755  -98.2691 H       608        0    0.0000
   3655 C        1178.4512   11.7540 -100.1827 C.3     609        0    0.0000
   3656 C        1178.9596   10.3896  -99.7038 C.3     609        0    0.0000
   3657 H        1177.5128   11.6321 -100.7379 H       609        0    0.0000
   3658 H        1179.1725   12.2015 -100.8777 H       609        0    0.0000
   3659 H        1179.9828   10.4832  -99.3197 H       609        0    0.0000
   3660 H        1178.3423   10.0292  -98.8717 H       609        0    0.0000
   3661 C        1178.9449    9.3159 -100.8459 C.3     610        0    0.0000
   3662 C        1179.4501    7.9507 -100.3664 C.3     610        0    0.0000
   3663 H        1177.9219    9.2242 -101.2319 H       610        0    0.0000
   3664 H        1179.5640    9.6754 -101.6772 H       610        0    0.0000
   3665 H        1180.5103    7.8314 -100.6212 H       610        0    0.0000
   3666 H        1179.3796    7.8862  -99.2735 H       610        0    0.0000
   3667 C        1178.6422    6.7638 -100.9956 C.3     611        0    0.0000
   3668 C        1178.9883    5.4181 -100.3485 C.3     611        0    0.0000
   3669 H        1177.5699    6.9688 -100.8869 H       611        0    0.0000
   3670 H        1178.8484    6.7273 -102.0725 H       611        0    0.0000
   3671 H        1179.4402    5.5802  -99.3621 H       611        0    0.0000
   3672 H        1178.0743    4.8336 -100.1845 H       611        0    0.0000
   3673 C        1179.9772    4.5744 -101.2248 C.3     612        0    0.0000
   3674 C        1179.9750    3.0913 -100.8384 C.3     612        0    0.0000
   3675 H        1179.7000    4.6886 -102.2802 H       612        0    0.0000
   3676 H        1180.9869    4.9897 -101.1177 H       612        0    0.0000
   3677 H        1178.9496    2.7015 -100.8490 H       612        0    0.0000
   3678 H        1180.5411    2.5095 -101.5761 H       612        0    0.0000
   3679 C        1180.5940    2.8462  -99.4191 C.3     613        0    0.0000
   3680 C        1180.4934    1.3792  -98.9870 C.3     613        0    0.0000
   3681 H        1181.6440    3.1635  -99.4318 H       613        0    0.0000
   3682 H        1180.0796    3.4883  -98.6933 H       613        0    0.0000
   3683 H        1180.5923    1.3003  -97.8972 H       613        0    0.0000
   3684 H        1179.5049    0.9784  -99.2436 H       613        0    0.0000
   3685 C        1181.5913    0.4850  -99.6597 C.3     614        0    0.0000
   3686 C        1181.2642   -1.0091  -99.5611 C.3     614        0    0.0000
   3687 H        1181.6915    0.7795 -100.7117 H       614        0    0.0000
   3688 H        1182.5570    0.6910  -99.1815 H       614        0    0.0000
   3689 H        1182.1241   -1.5565  -99.1555 H       614        0    0.0000
   3690 H        1180.4326   -1.1669  -98.8633 H       614        0    0.0000
   3691 C        1180.8818   -1.6265 -100.9504 C.3     615        0    0.0000
   3692 C        1180.4462   -3.0914 -100.8349 C.3     615        0    0.0000
   3693 H        1180.0759   -1.0281 -101.3936 H       615        0    0.0000
   3694 H        1181.7437   -1.5422 -101.6240 H       615        0    0.0000
   3695 H        1179.3827   -3.1884 -101.0862 H       615        0    0.0000
   3696 H        1180.9979   -3.7060 -101.5570 H       615        0    0.0000
   3697 C        1180.6803   -3.6692  -99.3965 C.3     616        0    0.0000
   3698 C        1180.4027   -5.1747  -99.3231 C.3     616        0    0.0000
   3699 H        1181.7151   -3.4624  -99.0965 H       616        0    0.0000
   3700 H        1180.0343   -3.1328  -98.6905 H       616        0    0.0000
   3701 H        1180.4491   -5.6153 -100.3266 H       616        0    0.0000
   3702 H        1181.1770   -5.6712  -98.7250 H       616        0    0.0000
   3703 C        1179.0006   -5.4905  -98.6969 C.3     617        0    0.0000
   3704 C        1178.5271   -6.9119  -99.0198 C.3     617        0    0.0000
   3705 H        1179.0593   -5.3512  -97.6101 H       617        0    0.0000
   3706 H        1178.2738   -4.7580  -99.0695 H       617        0    0.0000
   3707 H        1177.7111   -7.1989  -98.3452 H       617        0    0.0000
   3708 H        1178.1222   -6.9512 -100.0386 H       617        0    0.0000
   3709 C        1179.6812   -7.9655  -98.8939 C.3     618        0    0.0000
   3710 C        1179.3198   -9.3035  -99.5483 C.3     618        0    0.0000
   3711 H        1180.5876   -7.5538  -99.3549 H       618        0    0.0000
   3712 H        1179.9084   -8.1157  -97.8312 H       618        0    0.0000
   3713 H        1178.2310   -9.4362  -99.5570 H       618        0    0.0000
   3714 H        1179.6465   -9.3105 -100.5955 H       618        0    0.0000
   3715 C        1179.9714  -10.5220  -98.8078 C.3     619        0    0.0000
   3716 C        1179.4784  -11.8658  -99.3558 C.3     619        0    0.0000
   3717 H        1181.0619  -10.4532  -98.9054 H       619        0    0.0000
   3718 H        1179.7457  -10.4469  -97.7367 H       619        0    0.0000
   3719 H        1178.4563  -11.7629  -99.7405 H       619        0    0.0000
   3720 H        1180.1034  -12.1794 -100.2010 H       619        0    0.0000
   3721 C        1179.4973  -12.9940  -98.2675 C.3     620        0    0.0000
   3722 C        1178.8485  -14.2908  -98.7636 C.3     620        0    0.0000
   3723 H        1180.5367  -13.1827  -97.9718 H       620        0    0.0000
   3724 H        1178.9763  -12.6311  -97.3727 H       620        0    0.0000
   3725 H        1177.7699  -14.1439  -98.8991 H       620        0    0.0000
   3726 H        1179.2551  -14.5630  -99.7455 H       620        0    0.0000
   3727 C        1179.0754  -15.4852  -97.7741 C.3     621        0    0.0000
   3728 C        1178.5359  -16.8087  -98.3276 C.3     621        0    0.0000
   3729 H        1180.1492  -15.5740  -97.5673 H       621        0    0.0000
   3730 H        1178.5891  -15.2507  -96.8192 H       621        0    0.0000
   3731 H        1177.4558  -16.7304  -98.5033 H       621        0    0.0000
   3732 H        1178.9979  -17.0267  -99.2985 H       621        0    0.0000
   3733 C        1178.8042  -18.0115  -97.3588 C.3     622        0    0.0000
   3734 C        1178.0203  -19.2660  -97.7592 C.3     622        0    0.0000
   3735 H        1179.8800  -18.2265  -97.3517 H       622        0    0.0000
   3736 H        1178.5365  -17.7102  -96.3385 H       622        0    0.0000
   3737 H        1176.9448  -19.0494  -97.7722 H       622        0    0.0000
   3738 H        1178.2925  -19.5708  -98.7773 H       622        0    0.0000
   3739 C        1178.2821  -20.4663  -96.7854 C.3     623        0    0.0000
   3740 C        1177.5958  -21.7544  -97.2535 C.3     623        0    0.0000
   3741 H        1179.3645  -20.6253  -96.7032 H       623        0    0.0000
   3742 H        1177.9268  -20.1933  -95.7841 H       623        0    0.0000
   3743 H        1176.5378  -21.5599  -97.4692 H       623        0    0.0000
   3744 H        1178.0493  -22.1033  -98.1896 H       623        0    0.0000
   3745 C        1177.6920  -22.8999  -96.1878 C.3     624        0    0.0000
   3746 C        1176.9309  -24.1588  -96.6177 C.3     624        0    0.0000
   3747 H        1178.7495  -23.1388  -96.0198 H       624        0    0.0000
   3748 H        1177.2974  -22.5293  -95.2337 H       624        0    0.0000
   3749 H        1175.8583  -23.9421  -96.6936 H       624        0    0.0000
   3750 H        1177.2599  -24.4748  -97.6155 H       624        0    0.0000
   3751 C        1177.1366  -25.3482  -95.6175 C.3     625        0    0.0000
   3752 C        1176.3618  -26.6018  -96.0384 C.3     625        0    0.0000
   3753 H        1178.2085  -25.5730  -95.5512 H       625        0    0.0000
   3754 H        1176.8195  -25.0280  -94.6173 H       625        0    0.0000
   3755 H        1175.2971  -26.3645  -96.1544 H       625        0    0.0000
   3756 H        1176.7151  -26.9517  -97.0163 H       625        0    0.0000
   3757 C        1176.5095  -27.7678  -95.0010 C.3     626        0    0.0000
   3758 C        1175.6493  -28.9826  -95.3662 C.3     626        0    0.0000
   3759 H        1177.5658  -28.0584  -94.9437 H       626        0    0.0000
   3760 H        1176.2312  -27.3947  -94.0076 H       626        0    0.0000
   3761 H        1174.5911  -28.6962  -95.4046 H       626        0    0.0000
   3762 H        1175.9144  -29.3439  -96.3676 H       626        0    0.0000
   3763 C        1175.8177  -30.1588  -94.3436 C.3     627        0    0.0000
   3764 C        1174.9513  -31.3705  -94.7041 C.3     627        0    0.0000
   3765 H        1176.8752  -30.4492  -94.3098 H       627        0    0.0000
   3766 H        1175.5587  -29.7957  -93.3413 H       627        0    0.0000
   3767 H        1173.9043  -31.0636  -94.8174 H       627        0    0.0000
   3768 H        1175.2651  -31.7830  -95.6710 H       627        0    0.0000
   3769 C        1175.0319  -32.5017  -93.6219 C.3     628        0    0.0000
   3770 C        1174.1439  -33.7018  -93.9687 C.3     628        0    0.0000
   3771 H        1176.0765  -32.8226  -93.5229 H       628        0    0.0000
   3772 H        1174.7375  -32.0839  -92.6511 H       628        0    0.0000
   3773 H        1173.0986  -33.3823  -94.0597 H       628        0    0.0000
   3774 H        1174.4332  -34.1146  -94.9431 H       628        0    0.0000
   3775 C        1174.2333  -34.8377  -92.8920 C.3     629        0    0.0000
   3776 C        1173.3811  -36.0567  -93.2616 C.3     629        0    0.0000
   3777 H        1175.2833  -35.1339  -92.7767 H       629        0    0.0000
   3778 H        1173.9120  -34.4335  -91.9241 H       629        0    0.0000
   3779 H        1172.3486  -35.7463  -93.4648 H       629        0    0.0000
   3780 H        1173.7596  -36.5146  -94.1840 H       629        0    0.0000
   3781 C        1173.3694  -37.1393  -92.1279 C.3     630        0    0.0000
   3782 C        1172.5287  -38.3646  -92.5034 C.3     630        0    0.0000
   3783 H        1174.4026  -37.4422  -91.9176 H       630        0    0.0000
   3784 H        1172.9811  -36.6842  -91.2084 H       630        0    0.0000
   3785 H        1171.5150  -38.0533  -92.7845 H       630        0    0.0000
   3786 H        1172.9602  -38.8622  -93.3808 H       630        0    0.0000
   3787 C        1172.4323  -39.4009  -91.3312 C.3     631        0    0.0000
   3788 C        1171.6338  -40.6490  -91.7233 C.3     631        0    0.0000
   3789 H        1173.4471  -39.6843  -91.0254 H       631        0    0.0000
   3790 H        1171.9672  -38.9133  -90.4655 H       631        0    0.0000
   3791 H        1170.6537  -40.3586  -92.1217 H       631        0    0.0000
   3792 H        1172.1517  -41.1905  -92.5246 H       631        0    0.0000
   3793 C        1171.4193  -41.6216  -90.5127 C.3     632        0    0.0000
   3794 C        1170.7135  -42.9175  -90.9269 C.3     632        0    0.0000
   3795 H        1172.3948  -41.8508  -90.0661 H       632        0    0.0000
   3796 H        1170.8341  -41.1040  -89.7426 H       632        0    0.0000
   3797 H        1169.8480  -42.6883  -91.5609 H       632        0    0.0000
   3798 H        1171.3890  -43.5382  -91.5284 H       632        0    0.0000
   3799 C        1170.2278  -43.7507  -89.6910 C.3     633        0    0.0000
   3800 C        1169.6509  -45.1111  -90.0979 C.3     633        0    0.0000
   3801 H        1171.0723  -43.8903  -89.0047 H       633        0    0.0000
   3802 H        1169.4729  -43.1694  -89.1472 H       633        0    0.0000
   3803 H        1168.8615  -44.9757  -90.8472 H       633        0    0.0000
   3804 H        1170.4297  -45.7244  -90.5679 H       633        0    0.0000
   3805 C        1169.0592  -45.8949  -88.8760 C.3     634        0    0.0000
   3806 C        1168.6036  -47.3076  -89.2577 C.3     634        0    0.0000
   3807 H        1169.8195  -45.9452  -88.0865 H       634        0    0.0000
   3808 H        1168.2159  -45.3257  -88.4655 H       634        0    0.0000
   3809 H        1167.9503  -47.2671  -90.1381 H       634        0    0.0000
   3810 H        1169.4702  -47.9199  -89.5363 H       634        0    0.0000
   3811 C        1167.8358  -48.0197  -88.0912 C.3     635        0    0.0000
   3812 C        1167.5280  -49.4871  -88.4092 C.3     635        0    0.0000
   3813 H        1168.4387  -47.9515  -87.1773 H       635        0    0.0000
   3814 H        1166.9047  -47.4738  -87.8957 H       635        0    0.0000
   3815 H        1167.1479  -49.5781  -89.4342 H       635        0    0.0000
   3816 H        1168.4475  -50.0836  -88.3600 H       635        0    0.0000
   3817 C        1166.4746  -50.1004  -87.4233 C.3     636        0    0.0000
   3818 C        1166.3297  -51.6162  -87.5975 C.3     636        0    0.0000
   3819 H        1166.7754  -49.8671  -86.3944 H       636        0    0.0000
   3820 H        1165.5079  -49.6086  -87.5881 H       636        0    0.0000
   3821 H        1166.2544  -51.8670  -88.6630 H       636        0    0.0000
   3822 H        1167.2233  -52.1258  -87.2163 H       636        0    0.0000
   3823 C        1165.0701  -52.1818  -86.8553 C.3     637        0    0.0000
   3824 C        1165.0660  -53.7136  -86.8027 C.3     637        0    0.0000
   3825 H        1165.0443  -51.7705  -85.8386 H       637        0    0.0000
   3826 H        1164.1678  -51.8206  -87.3643 H       637        0    0.0000
   3827 H        1166.0815  -54.0980  -86.9592 H       637        0    0.0000
   3828 H        1164.7498  -54.0550  -85.8092 H       637        0    0.0000
   3829 C        1164.1160  -54.3426  -87.8792 C.3     638        0    0.0000
   3830 C        1163.7269  -55.7855  -87.5387 C.3     638        0    0.0000
   3831 H        1163.2164  -53.7204  -87.9638 H       638        0    0.0000
   3832 H        1164.6158  -54.3082  -88.8552 H       638        0    0.0000
   3833 H        1162.7607  -55.8021  -87.0194 H       638        0    0.0000
   3834 H        1163.5997  -56.3680  -88.4595 H       638        0    0.0000
   3835 C        1164.7970  -56.4924  -86.6373 C.3     639        0    0.0000
   3836 C        1164.2981  -57.8325  -86.0858 C.3     639        0    0.0000
   3837 H        1165.7103  -56.6445  -87.2259 H       639        0    0.0000
   3838 H        1165.0626  -55.8212  -85.8113 H       639        0    0.0000
   3839 H        1164.0332  -58.5041  -86.9119 H       639        0    0.0000
   3840 H        1165.0975  -58.3280  -85.5210 H       639        0    0.0000
   3841 C        1163.0502  -57.6634  -85.1522 C.3     640        0    0.0000
   3842 C        1162.5780  -58.9984  -84.5660 C.3     640        0    0.0000
   3843 H        1163.3052  -56.9668  -84.3439 H       640        0    0.0000
   3844 H        1162.2397  -57.1969  -85.7261 H       640        0    0.0000
   3845 H        1163.4418  -59.6326  -84.3313 H       640        0    0.0000
   3846 H        1162.0466  -58.8276  -83.6215 H       640        0    0.0000
   3847 C        1161.6316  -59.7755  -85.5447 C.3     641        0    0.0000
   3848 C        1161.2789  -61.1733  -85.0241 C.3     641        0    0.0000
   3849 H        1160.7173  -59.1879  -85.6937 H       641        0    0.0000
   3850 H        1162.1206  -59.8512  -86.5238 H       641        0    0.0000
   3851 H        1160.1963  -61.3377  -85.0913 H       641        0    0.0000
   3852 H        1161.7533  -61.9387  -85.6505 H       641        0    0.0000
   3853 C        1161.7306  -61.3852  -83.5379 C.3     642        0    0.0000
   3854 C        1161.4590  -62.8111  -83.0459 C.3     642        0    0.0000
   3855 H        1162.8007  -61.1570  -83.4577 H       642        0    0.0000
   3856 H        1161.2057  -60.6615  -82.9021 H       642        0    0.0000
   3857 H        1162.0781  -63.5254  -83.6027 H       642        0    0.0000
   3858 H        1161.7418  -62.9049  -81.9901 H       642        0    0.0000
   3859 C        1159.9530  -63.2173  -83.2035 C.3     643        0    0.0000
   3860 C        1159.6678  -64.6173  -82.6486 C.3     643        0    0.0000
   3861 H        1159.3308  -62.4747  -82.6887 H       643        0    0.0000
   3862 H        1159.6838  -63.1717  -84.2660 H       643        0    0.0000
   3863 H        1160.3989  -64.8695  -81.8705 H       643        0    0.0000
   3864 H        1158.6801  -64.6389  -82.1718 H       643        0    0.0000
   3865 C        1159.7152  -65.7188  -83.7629 C.3     644        0    0.0000
   3866 C        1159.1427  -67.0567  -83.2816 C.3     644        0    0.0000
   3867 H        1159.1554  -65.3626  -84.6365 H       644        0    0.0000
   3868 H        1160.7552  -65.8495  -84.0870 H       644        0    0.0000
   3869 H        1158.0773  -67.1226  -83.5345 H       644        0    0.0000
   3870 H        1159.6410  -67.8866  -83.7976 H       644        0    0.0000
   3871 C        1159.3076  -67.2515  -81.7349 C.3     645        0    0.0000
   3872 C        1158.4966  -68.4410  -81.2093 C.3     645        0    0.0000
   3873 H        1160.3717  -67.3921  -81.5077 H       645        0    0.0000
   3874 H        1158.9962  -66.3302  -81.2272 H       645        0    0.0000
   3875 H        1157.6975  -68.6936  -81.9175 H       645        0    0.0000
   3876 H        1159.1378  -69.3274  -81.1288 H       645        0    0.0000
   3877 C        1157.8567  -68.1511  -79.8079 C.3     646        0    0.0000
   3878 C        1157.1107  -69.3669  -79.2473 C.3     646        0    0.0000
   3879 H        1158.6490  -67.8432  -79.1143 H       646        0    0.0000
   3880 H        1157.1715  -67.2995  -79.9014 H       646        0    0.0000
   3881 H        1157.5975  -69.7161  -78.3285 H       646        0    0.0000
   3882 H        1156.0859  -69.0863  -78.9737 H       646        0    0.0000
   3883 C        1157.0535  -70.5529  -80.2709 C.3     647        0    0.0000
   3884 C        1156.1943  -71.7166  -79.7640 C.3     647        0    0.0000
   3885 H        1156.6570  -70.1794  -81.2231 H       647        0    0.0000
   3886 H        1158.0757  -70.8985  -80.4691 H       647        0    0.0000
   3887 H        1155.4377  -71.3473  -79.0608 H       647        0    0.0000
   3888 H        1155.6508  -72.1747  -80.5997 H       647        0    0.0000
   3889 C        1157.0497  -72.8206  -79.0520 C.3     648        0    0.0000
   3890 C        1156.2198  -74.0595  -78.6971 C.3     648        0    0.0000
   3891 H        1157.8826  -73.1011  -79.7087 H       648        0    0.0000
   3892 H        1157.4941  -72.3931  -78.1447 H       648        0    0.0000
   3893 H        1156.0043  -74.6398  -79.6027 H       648        0    0.0000
   3894 H        1156.7915  -74.7166  -78.0303 H       648        0    0.0000
   3895 C        1154.8655  -73.6877  -78.0007 C.3     649        0    0.0000
   3896 C        1153.9982  -74.9201  -77.7219 C.3     649        0    0.0000
   3897 H        1155.0826  -73.1608  -77.0635 H       649        0    0.0000
   3898 H        1154.3212  -72.9817  -78.6402 H       649        0    0.0000
   3899 H        1153.0886  -74.6260  -77.1835 H       649        0    0.0000
   3900 H        1153.6725  -75.3725  -78.6667 H       649        0    0.0000
   3901 C        1154.7568  -76.0021  -76.8787 C.3     650        0    0.0000
   3902 C        1153.9978  -77.3326  -76.8229 C.3     650        0    0.0000
   3903 H        1155.7524  -76.1551  -77.3134 H       650        0    0.0000
   3904 H        1154.9122  -75.6149  -75.8641 H       650        0    0.0000
   3905 H        1153.2810  -77.3917  -77.6512 H       650        0    0.0000
   3906 H        1154.6959  -78.1694  -76.9498 H       650        0    0.0000
   3907 C        1153.2250  -77.5196  -75.4719 C.3     651        0    0.0000
   3908 C        1152.1545  -78.6128  -75.5614 C.3     651        0    0.0000
   3909 H        1153.9467  -77.7634  -74.6824 H       651        0    0.0000
   3910 H        1152.7640  -76.5638  -75.1929 H       651        0    0.0000
   3911 H        1151.2372  -78.2831  -75.0580 H       651        0    0.0000
   3912 H        1151.8901  -78.7952  -76.6103 H       651        0    0.0000
   3913 C        1152.6276  -79.9615  -74.9176 C.3     652        0    0.0000
   3914 C        1151.5642  -81.0603  -75.0238 C.3     652        0    0.0000
   3915 H        1153.5524  -80.2841  -75.4116 H       652        0    0.0000
   3916 H        1152.8790  -79.7818  -73.8649 H       652        0    0.0000
   3917 H        1150.5765  -80.6130  -75.1913 H       652        0    0.0000
   3918 H        1151.7708  -81.7012  -75.8899 H       652        0    0.0000
   3919 C        1151.5024  -81.9537  -73.7371 C.3     653        0    0.0000
   3920 C        1150.1652  -82.6909  -73.6054 C.3     653        0    0.0000
   3921 H        1152.3284  -82.6752  -73.7675 H       653        0    0.0000
   3922 H        1151.6707  -81.3194  -72.8578 H       653        0    0.0000
   3923 H        1149.4028  -82.0165  -73.1966 H       653        0    0.0000
   3924 H        1149.8102  -83.0056  -74.5945 H       653        0    0.0000
   3925 C        1150.2711  -83.9530  -72.6815 C.3     654        0    0.0000
   3926 C        1149.0574  -84.8785  -72.8209 C.3     654        0    0.0000
   3927 H        1151.1901  -84.4978  -72.9309 H       654        0    0.0000
   3928 H        1150.3739  -83.6217  -71.6407 H       654        0    0.0000
   3929 H        1148.2095  -84.3257  -73.2441 H       654        0    0.0000
   3930 H        1149.2836  -85.6926  -73.5207 H       654        0    0.0000
   3931 C        1148.6218  -85.4983  -71.4485 C.3     655        0    0.0000
   3932 C        1147.4109  -86.4273  -71.5888 C.3     655        0    0.0000
   3933 H        1149.4708  -86.0483  -71.0236 H       655        0    0.0000
   3934 H        1148.3926  -84.6842  -70.7497 H       655        0    0.0000
   3935 H        1146.4822  -85.8483  -71.5142 H       655        0    0.0000
   3936 H        1147.4104  -86.8975  -72.5800 H       655        0    0.0000
   3937 C        1147.3949  -87.5514  -70.4963 C.3     656        0    0.0000
   3938 C        1146.3517  -88.6345  -70.7925 C.3     656        0    0.0000
   3939 H        1148.3947  -87.9990  -70.4347 H       656        0    0.0000
   3940 H        1147.1945  -87.0929  -69.5201 H       656        0    0.0000
   3941 H        1145.3989  -88.1712  -71.0775 H       656        0    0.0000
   3942 H        1146.6737  -89.2434  -71.6464 H       656        0    0.0000
   3943 C        1146.1077  -89.5765  -69.5635 C.3     657        0    0.0000
   3944 C        1144.8013  -90.3681  -69.6886 C.3     657        0    0.0000
   3945 H        1146.9572  -90.2646  -69.4712 H       657        0    0.0000
   3946 H        1146.0936  -88.9693  -68.6499 H       657        0    0.0000
   3947 H        1143.9480  -89.6804  -69.7376 H       657        0    0.0000
   3948 H        1144.7976  -90.9421  -70.6234 H       657        0    0.0000
   3949 C        1144.5870  -91.3544  -68.4891 C.3     658        0    0.0000
   3950 C        1143.5211  -92.4135  -68.7911 C.3     658        0    0.0000
   3951 H        1145.5430  -91.8391  -68.2549 H       658        0    0.0000
   3952 H        1144.3016  -90.7757  -67.6020 H       658        0    0.0000
   3953 H        1142.5574  -91.9300  -68.9931 H       658        0    0.0000
   3954 H        1143.7902  -92.9704  -69.6972 H       658        0    0.0000
   3955 C        1143.3398  -93.4278  -67.6097 C.3     659        0    0.0000
   3956 C        1142.0564  -94.2545  -67.7457 C.3     659        0    0.0000
   3957 H        1144.2130  -94.0913  -67.5762 H       659        0    0.0000
   3958 H        1143.3306  -92.8714  -66.6642 H       659        0    0.0000
   3959 H        1141.1853  -93.5901  -67.8024 H       659        0    0.0000
   3960 H        1142.0763  -94.8287  -68.6802 H       659        0    0.0000
   3961 C        1141.8586  -95.2459  -66.5475 C.3     660        0    0.0000
   3962 C        1140.6616  -96.1796  -66.7578 C.3     660        0    0.0000
   3963 H        1142.7762  -95.8336  -66.4197 H       660        0    0.0000
   3964 H        1141.7257  -94.6652  -65.6263 H       660        0    0.0000
   3965 H        1139.7380  -95.5937  -66.8427 H       660        0    0.0000
   3966 H        1140.7742  -96.7289  -67.7007 H       660        0    0.0000
   3967 C        1140.5000  -97.2110  -65.5883 C.3     661        0    0.0000
   3968 C        1139.2172  -98.0394  -65.7176 C.3     661        0    0.0000
   3969 H        1141.3754  -97.8723  -65.5766 H       661        0    0.0000
   3970 H        1140.5028  -96.6680  -64.6351 H       661        0    0.0000
   3971 H        1138.3431  -97.3771  -65.7471 H       661        0    0.0000
   3972 H        1139.2224  -98.5962  -66.6629 H       661        0    0.0000
   3973 C        1139.0430  -99.0535  -64.5349 C.3     662        0    0.0000
   3974 C        1137.7805  -99.9094  -64.6847 C.3     662        0    0.0000
   3975 H        1139.9303  -99.6970  -64.4873 H       662        0    0.0000
   3976 H        1139.0085  -98.4942  -63.5917 H       662        0    0.0000
   3977 H        1136.8931  -99.2660  -64.7303 H       662        0    0.0000
   3978 H        1137.8141 -100.4673  -65.6287 H       662        0    0.0000
   3979 C        1137.6077 -100.9253  -63.5033 C.3     663        0    0.0000
   3980 C        1136.3302 -101.7611  -63.6381 C.3     663        0    0.0000
   3981 H        1138.4857 -101.5826  -63.4709 H       663        0    0.0000
   3982 H        1137.5955 -100.3692  -62.5577 H       663        0    0.0000
   3983 H        1135.4529 -101.1035  -63.6777 H       663        0    0.0000
   3984 H        1136.3457 -102.3227  -64.5803 H       663        0    0.0000
   3985 C        1136.1521 -102.7699  -62.4514 C.3     664        0    0.0000
   3986 C        1134.8702 -103.5998  -62.5818 C.3     664        0    0.0000
   3987 H        1137.0266 -103.4315  -62.4156 H       664        0    0.0000
   3988 H        1136.1429 -102.2089  -61.5087 H       664        0    0.0000
   3989 H        1133.9961 -102.9380  -62.6203 H       664        0    0.0000
   3990 H        1134.8807 -104.1629  -63.5233 H       664        0    0.0000
   3991 C        1134.6904 -104.6059  -61.3932 C.3     665        0    0.0000
   3992 C        1133.4001 -105.4241  -61.5149 C.3     665        0    0.0000
   3993 H        1135.5590 -105.2755  -61.3623 H       665        0    0.0000
   3994 H        1134.6921 -104.0441  -60.4510 H       665        0    0.0000
   3995 H        1132.5319 -104.7544  -61.5484 H       665        0    0.0000
   3996 H        1133.3997 -105.9879  -62.4560 H       665        0    0.0000
   3997 C        1133.2185 -106.4278  -60.3245 C.3     666        0    0.0000
   3998 C        1131.9176 -107.2306  -60.4349 C.3     666        0    0.0000
   3999 H        1134.0792 -107.1077  -60.3007 H       666        0    0.0000
   4000 H        1133.2351 -105.8658  -59.3825 H       666        0    0.0000
   4001 H        1131.0575 -106.5504  -60.4665 H       666        0    0.0000
   4002 H        1131.9048 -107.7987  -61.3733 H       666        0    0.0000
   4003 C        1131.7306 -108.2264  -59.2388 C.3     667        0    0.0000
   4004 C        1130.4293 -109.0285  -59.3487 C.3     667        0    0.0000
   4005 H        1132.5903 -108.9071  -59.2076 H       667        0    0.0000
   4006 H        1131.7444 -107.6584  -58.3003 H       667        0    0.0000
   4007 H        1129.5699 -108.3475  -59.3890 H       667        0    0.0000
   4008 H        1130.4194 -109.6035  -60.2829 H       667        0    0.0000
   4009 C        1130.2360 -110.0152  -58.1460 C.3     668        0    0.0000
   4010 C        1128.9366 -110.8199  -58.2579 C.3     668        0    0.0000
   4011 H        1131.0967 -110.6943  -58.1040 H       668        0    0.0000
   4012 H        1130.2429 -109.4398  -57.2119 H       668        0    0.0000
   4013 H        1128.0764 -110.1406  -58.3075 H       668        0    0.0000
   4014 H        1128.9330 -111.4011  -59.1884 H       668        0    0.0000
   4015 C        1128.7380 -111.7990  -57.0498 C.3     669        0    0.0000
   4016 C        1127.4325 -112.5947  -57.1555 C.3     669        0    0.0000
   4017 H        1129.5938 -112.4843  -57.0058 H       669        0    0.0000
   4018 H        1128.7509 -111.2189  -56.1188 H       669        0    0.0000
   4019 H        1126.5775 -111.9092  -57.2089 H       669        0    0.0000
   4020 H        1127.4237 -113.1820  -58.0820 H       669        0    0.0000
   4021 C        1127.2274 -113.5641  -55.9407 C.3     670        0    0.0000
   4022 C        1125.9187 -114.3550  -56.0431 C.3     670        0    0.0000
   4023 H        1128.0800 -114.2527  -55.8900 H       670        0    0.0000
   4024 H        1127.2410 -112.9774  -55.0138 H       670        0    0.0000
   4025 H        1125.0668 -113.6663  -56.1056 H       670        0    0.0000
   4026 H        1125.9102 -114.9508  -56.9642 H       670        0    0.0000
   4027 C        1125.7057 -115.3122  -54.8201 C.3     671        0    0.0000
   4028 C        1124.4115 -116.1248  -54.9368 C.3     671        0    0.0000
   4029 H        1126.5676 -115.9867  -54.7447 H       671        0    0.0000
   4030 H        1125.6925 -114.7138  -53.9007 H       671        0    0.0000
   4031 H        1123.5515 -115.4505  -55.0343 H       671        0    0.0000
   4032 H        1124.4340 -116.7398  -55.8450 H       671        0    0.0000
   4033 C        1124.1829 -117.0594  -53.6992 C.3     672        0    0.0000
   4034 C        1122.8927 -117.8777  -53.8196 C.3     672        0    0.0000
   4035 H        1125.0457 -117.7297  -53.5982 H       672        0    0.0000
   4036 H        1124.1544 -116.4437  -52.7916 H       672        0    0.0000
   4037 H        1122.0309 -117.2075  -53.9290 H       672        0    0.0000
   4038 H        1122.9246 -118.4997  -54.7228 H       672        0    0.0000
   4039 C        1122.6581 -118.8036  -52.5766 C.3     673        0    0.0000
   4040 C        1121.3444 -119.5868  -52.6753 C.3     673        0    0.0000
   4041 H        1123.5035 -119.4970  -52.4875 H       673        0    0.0000
   4042 H        1122.6604 -118.1858  -51.6700 H       673        0    0.0000
   4043 H        1120.4993 -118.8935  -52.7698 H       673        0    0.0000
   4044 H        1121.3442 -120.2086  -53.5791 H       673        0    0.0000
   4045 C        1121.1062 -120.5070  -51.4288 C.3     674        0    0.0000
   4046 C        1119.7885 -121.2842  -51.5238 C.3     674        0    0.0000
   4047 H        1121.9486 -121.2042  -51.3379 H       674        0    0.0000
   4048 H        1121.1121 -119.8860  -50.5245 H       674        0    0.0000
   4049 H        1118.9480 -120.5876  -51.6315 H       674        0    0.0000
   4050 H        1119.7893 -121.9179  -52.4193 H       674        0    0.0000
   4051 C        1119.5391 -122.1866  -50.2665 C.3     675        0    0.0000
   4052 C        1118.2462 -123.0013  -50.3835 C.3     675        0    0.0000
   4053 H        1120.3967 -122.8586  -50.1378 H       675        0    0.0000
   4054 H        1119.5023 -121.5485  -49.3749 H       675        0    0.0000
   4055 H        1117.3883 -122.3293  -50.5103 H       675        0    0.0000
   4056 H        1118.2822 -123.6380  -51.2761 H       675        0    0.0000
   4057 C        1117.9983 -123.9058  -49.1273 C.3     676        0    0.0000
   4058 C        1116.6606 -124.6504  -49.2026 C.3     676        0    0.0000
   4059 H        1118.8236 -124.6231  -49.0396 H       676        0    0.0000
   4060 H        1118.0293 -123.2782  -48.2280 H       676        0    0.0000
   4061 H        1115.8352 -123.9331  -49.2891 H       676        0    0.0000
   4062 H        1116.6293 -125.2771  -50.1026 H       676        0    0.0000
   4063 C        1116.4136 -125.5563  -47.9473 C.3     677        0    0.0000
   4064 C        1115.0558 -126.2651  -48.0007 C.3     677        0    0.0000
   4065 H        1117.2214 -126.2955  -47.8801 H       677        0    0.0000
   4066 H        1116.4786 -124.9356  -47.0450 H       677        0    0.0000
   4067 H        1114.2501 -125.5275  -48.1015 H       677        0    0.0000
   4068 H        1115.0035 -126.9117  -48.8854 H       677        0    0.0000
   4069 C        1114.7885 -127.1339  -46.7235 C.3     678        0    0.0000
   4070 C        1113.5272 -127.9940  -46.8595 C.3     678        0    0.0000
   4071 H        1115.6616 -127.7728  -46.5414 H       678        0    0.0000
   4072 H        1114.6984 -126.4687  -45.8558 H       678        0    0.0000
   4073 H        1112.6534 -127.3547  -47.0357 H       678        0    0.0000
   4074 H        1113.6149 -128.6551  -47.7306 H       678        0    0.0000
   4075 C        1113.2645 -128.8689  -45.5855 C.3     679        0    0.0000
   4076 C        1111.9199 -129.6014  -45.6511 C.3     679        0    0.0000
   4077 H        1114.0822 -129.5926  -45.4788 H       679        0    0.0000
   4078 H        1113.2982 -128.2227  -44.6996 H       679        0    0.0000
   4079 H        1111.1007 -128.8767  -45.7362 H       679        0    0.0000
   4080 H        1111.8778 -130.2311  -46.5485 H       679        0    0.0000
   4081 C        1111.6708 -130.5001  -44.3911 C.3     680        0    0.0000
   4082 C        1110.2354 -131.0342  -44.3332 C.3     680        0    0.0000
   4083 H        1112.3824 -131.3349  -44.4058 H       680        0    0.0000
   4084 H        1111.8907 -129.9144  -43.4899 H       680        0    0.0000
   4085 H        1109.5226 -130.2009  -44.3637 H       680        0    0.0000
   4086 H        1110.0298 -131.6569  -45.2126 H       680        0    0.0000
   4087 C        1109.9681 -131.8807  -43.0411 C.3     681        0    0.0000
   4088 C        1108.7791 -132.8335  -43.2065 C.3     681        0    0.0000
   4089 H        1110.8743 -132.4488  -42.7969 H       681        0    0.0000
   4090 H        1109.7889 -131.1975  -42.2016 H       681        0    0.0000
   4091 H        1107.8864 -132.2721  -43.5091 H       681        0    0.0000
   4092 H        1108.9838 -133.5551  -44.0071 H       681        0    0.0000
   4093 C        1108.4591 -133.6188  -41.8880 C.3     682        0    0.0000
   4094 C        1107.3051 -134.6111  -42.0685 C.3     682        0    0.0000
   4095 H        1109.3633 -134.1486  -41.5637 H       682        0    0.0000
   4096 H        1108.2156 -132.8983  -41.0975 H       682        0    0.0000
   4097 H        1106.3829 -134.0735  -42.3225 H       682        0    0.0000
   4098 H        1107.5171 -135.2863  -42.9067 H       682        0    0.0000
   4099 C        1107.0515 -135.4683  -40.7807 C.3     683        0    0.0000
   4100 C        1105.5640 -135.5514  -40.4217 C.3     683        0    0.0000
   4101 H        1107.4567 -136.4752  -40.9408 H       683        0    0.0000
   4102 H        1107.6157 -135.0306  -39.9478 H       683        0    0.0000
   4103 H        1105.1821 -134.5549  -40.1673 H       683        0    0.0000
   4104 H        1104.9867 -135.8982  -41.2878 H       683        0    0.0000
   4105 C        1105.2965 -136.5177  -39.2166 C.3     684        0    0.0000
   4106 C        1103.8737 -137.0868  -39.2330 C.3     684        0    0.0000
   4107 H        1106.0286 -137.3342  -39.2489 H       684        0    0.0000
   4108 H        1105.4731 -135.9731  -38.2808 H       684        0    0.0000
   4109 H        1103.1508 -136.2867  -39.4355 H       684        0    0.0000
   4110 H        1103.7701 -137.8177  -40.0446 H       684        0    0.0000
   4111 C        1103.4949 -137.7789  -37.8783 C.3     685        0    0.0000
   4112 C        1102.9369 -139.1915  -38.0839 C.3     685        0    0.0000
   4113 H        1104.3855 -137.8157  -37.2389 H       685        0    0.0000
   4114 H        1102.7581 -137.1556  -37.3567 H       685        0    0.0000
   4115 H        1102.0291 -139.1516  -38.6984 H       685        0    0.0000
   4116 H        1103.6617 -139.8061  -38.6321 H       685        0    0.0000
   4117 C        1102.5979 -139.8996  -36.7270 C.3     686        0    0.0000
   4118 C        1101.2620 -140.6489  -36.7808 C.3     686        0    0.0000
   4119 H        1103.4091 -140.5947  -36.4785 H       686        0    0.0000
   4120 H        1102.5742 -139.1453  -35.9307 H       686        0    0.0000
   4121 H        1100.4363 -139.9373  -36.9051 H       686        0    0.0000
   4122 H        1101.2385 -141.3140  -37.6529 H       686        0    0.0000
   4123 C        1101.0054 -141.4997  -35.4893 C.3     687        0    0.0000
   4124 C        1099.5116 -141.6617  -35.1877 C.3     687        0    0.0000
   4125 H        1101.4725 -142.4843  -35.6160 H       687        0    0.0000
   4126 H        1101.5101 -141.0182  -34.6426 H       687        0    0.0000
   4127 H        1099.0295 -140.6776  -35.1359 H       687        0    0.0000
   4128 H        1099.0209 -142.2105  -36.0011 H       687        0    0.0000
   4129 C        1099.2565 -142.4209  -33.8401 C.3     688        0    0.0000
   4130 C        1097.9456 -143.2147  -33.8597 C.3     688        0    0.0000
   4131 H        1100.1011 -143.0942  -33.6481 H       688        0    0.0000
   4132 H        1099.2423 -141.6917  -33.0206 H       688        0    0.0000
   4133 H        1097.1049 -142.5470  -34.0854 H       688        0    0.0000
   4134 H        1097.9734 -143.9670  -34.6577 H       688        0    0.0000
   4135 C        1097.6667 -143.9350  -32.4956 C.3     689        0    0.0000
   4136 C        1096.3997 -144.7960  -32.5417 C.3     689        0    0.0000
   4137 H        1098.5344 -144.5560  -32.2398 H       689        0    0.0000
   4138 H        1097.5782 -143.1774  -31.7072 H       689        0    0.0000
   4139 H        1095.5328 -144.1759  -32.8018 H       689        0    0.0000
   4140 H        1096.4900 -145.5565  -33.3273 H       689        0    0.0000
   4141 C        1096.1174 -145.5115  -31.1758 C.3     690        0    0.0000
   4142 C        1094.7473 -146.1980  -31.1518 C.3     690        0    0.0000
   4143 H        1096.9100 -146.2473  -30.9916 H       690        0    0.0000
   4144 H        1096.1813 -144.7710  -30.3689 H       690        0    0.0000
   4145 H        1093.9559 -145.4653  -31.3531 H       690        0    0.0000
   4146 H        1094.6897 -146.9506  -31.9479 H       690        0    0.0000
   4147 C        1094.4548 -146.8928  -29.7774 C.3     691        0    0.0000
   4148 C        1093.0913 -147.5922  -29.7586 C.3     691        0    0.0000
   4149 H        1095.2521 -147.6176  -29.5708 H       691        0    0.0000
   4150 H        1094.5016 -146.1381  -28.9826 H       691        0    0.0000
   4151 H        1092.2953 -146.8708  -29.9817 H       691        0    0.0000
   4152 H        1093.0507 -148.3585  -30.5426 H       691        0    0.0000
   4153 C        1092.7885 -148.2670  -28.3764 C.3     692        0    0.0000
   4154 C        1091.4297 -148.9755  -28.3612 C.3     692        0    0.0000
   4155 H        1093.5884 -148.9827  -28.1495 H       692        0    0.0000
   4156 H        1092.8213 -147.4993  -27.5934 H       692        0    0.0000
   4157 H        1090.6316 -148.2637  -28.6061 H       692        0    0.0000
   4158 H        1091.4033 -149.7556  -29.1321 H       692        0    0.0000
   4159 C        1091.1154 -149.6282  -26.9709 C.3     693        0    0.0000
   4160 C        1089.7532 -150.3304  -26.9535 C.3     693        0    0.0000
   4161 H        1091.9108 -150.3439  -26.7285 H       693        0    0.0000
   4162 H        1091.1469 -148.8490  -26.1993 H       693        0    0.0000
   4163 H        1088.9594 -149.6175  -27.2082 H       693        0    0.0000
   4164 H        1089.7262 -151.1180  -27.7168 H       693        0    0.0000
   4165 C        1089.4313 -150.9679  -25.5580 C.3     694        0    0.0000
   4166 C        1088.0646 -151.6614  -25.5376 C.3     694        0    0.0000
   4167 H        1090.2213 -151.6863  -25.3067 H       694        0    0.0000
   4168 H        1089.4656 -150.1817  -24.7937 H       694        0    0.0000
   4169 H        1087.2776 -150.9496  -25.8156 H       694        0    0.0000
   4170 H        1088.0397 -152.4657  -26.2833 H       694        0    0.0000
   4171 C        1087.7260 -152.2655  -24.1312 C.3     695        0    0.0000
   4172 C        1086.3573 -152.9552  -24.1095 C.3     695        0    0.0000
   4173 H        1088.5116 -152.9798  -23.8548 H       695        0    0.0000
   4174 H        1087.7542 -151.4618  -23.3851 H       695        0    0.0000
   4175 H        1085.5737 -152.2449  -24.4008 H       695        0    0.0000
   4176 H        1086.3346 -153.7687  -24.8451 H       695        0    0.0000
   4177 C        1086.0093 -153.5406  -22.6976 C.3     696        0    0.0000
   4178 C        1084.6392 -154.2269  -22.6749 C.3     696        0    0.0000
   4179 H        1086.7917 -154.2529  -22.4075 H       696        0    0.0000
   4180 H        1086.0352 -152.7274  -21.9615 H       696        0    0.0000
   4181 H        1083.8600 -153.5215  -22.9889 H       696        0    0.0000
   4182 H        1084.6219 -155.0559  -23.3931 H       696        0    0.0000
   4183 C        1084.2759 -154.7814  -21.2543 C.3     697        0    0.0000
   4184 C        1082.9020 -155.4603  -21.2296 C.3     697        0    0.0000
   4185 H        1085.0520 -155.4915  -20.9428 H       697        0    0.0000
   4186 H        1084.2994 -153.9535  -20.5349 H       697        0    0.0000
   4187 H        1082.1307 -154.7613  -21.5763 H       697        0    0.0000
   4188 H        1082.8905 -156.3111  -21.9221 H       697        0    0.0000
   4189 C        1082.5161 -155.9688  -19.7979 C.3     698        0    0.0000
   4190 C        1081.1443 -156.6516  -19.7740 C.3     698        0    0.0000
   4191 H        1083.2891 -156.6653  -19.4498 H       698        0    0.0000
   4192 H        1082.5247 -155.1174  -19.1060 H       698        0    0.0000
   4193 H        1080.3776 -155.9691  -20.1612 H       698        0    0.0000
   4194 H        1081.1487 -157.5277  -20.4344 H       698        0    0.0000
   4195 C        1080.7327 -157.1080  -18.3319 C.3     699        0    0.0000
   4196 C        1079.3640 -157.7973  -18.3092 C.3     699        0    0.0000
   4197 H        1081.5021 -157.7863  -17.9425 H       699        0    0.0000
   4198 H        1080.7231 -156.2310  -17.6728 H       699        0    0.0000
   4199 H        1078.6071 -157.1453  -18.7621 H       699        0    0.0000
   4200 H        1079.3938 -158.7125  -18.9135 H       699        0    0.0000
   4201 C        1078.9086 -158.1664  -16.8553 C.3     700        0    0.0000
   4202 C        1077.5494 -158.8743  -16.8344 C.3     700        0    0.0000
   4203 H        1079.6730 -158.8061  -16.3971 H       700        0    0.0000
   4204 H        1078.8644 -157.2491  -16.2551 H       700        0    0.0000
   4205 H        1077.6537 -159.8999  -17.2098 H       700        0    0.0000
   4206 H        1077.1816 -158.9519  -15.8037 H       700        0    0.0000
   4207 C        1076.4767 -158.1263  -17.6988 C.3     701        0    0.0000
   4208 C        1075.1161 -158.8315  -17.6737 C.3     701        0    0.0000
   4209 H        1076.3752 -157.0997  -17.3258 H       701        0    0.0000
   4210 H        1076.8430 -158.0519  -18.7302 H       701        0    0.0000
   4211 H        1074.3480 -158.1529  -17.2825 H       701        0    0.0000
   4212 H        1074.8115 -159.0976  -18.6935 H       701        0    0.0000
   4213 C        1075.1365 -160.1309  -16.7971 C.3     702        0    0.0000
   4214 C        1073.7295 -160.5711  -16.3783 C.3     702        0    0.0000
   4215 H        1075.6283 -160.9316  -17.3633 H       702        0    0.0000
   4216 H        1075.7537 -159.9484  -15.9087 H       702        0    0.0000
   4217 H        1073.1090 -159.6925  -16.1625 H       702        0    0.0000
   4218 H        1073.2418 -161.1064  -17.2024 H       702        0    0.0000
   4219 C        1073.7485 -161.4986  -15.1146 C.3     703        0    0.0000
   4220 C        1072.3854 -161.5576  -14.4167 C.3     703        0    0.0000
   4221 H        1074.0591 -162.5055  -15.4197 H       703        0    0.0000
   4222 H        1074.5123 -161.1310  -14.4178 H       703        0    0.0000
   4223 H        1072.1581 -160.5899  -13.9527 H       703        0    0.0000
   4224 H        1071.5941 -161.7478  -15.1525 H       703        0    0.0000
   4225 C        1072.3295 -162.6718  -13.3154 C.3     704        0    0.0000
   4226 C        1070.8950 -163.1207  -13.0154 C.3     704        0    0.0000
   4227 H        1072.9298 -163.5279  -13.6478 H       704        0    0.0000
   4228 H        1072.8032 -162.2905  -12.4023 H       704        0    0.0000
   4229 H        1070.1842 -162.3530  -13.3451 H       704        0    0.0000
   4230 H        1070.6599 -164.0312  -13.5803 H       704        0    0.0000
   4231 C        1070.6664 -163.3991  -11.4898 C.3     705        0    0.0000
   4232 C        1069.1796 -163.4143  -11.1185 C.3     705        0    0.0000
   4233 H        1071.1281 -164.3605  -11.2328 H       705        0    0.0000
   4234 H        1071.1917 -162.6319  -10.9076 H       705        0    0.0000
   4235 H        1069.0223 -162.8793  -10.1737 H       705        0    0.0000
   4236 H        1068.5958 -162.8844  -11.8815 H       705        0    0.0000
   4237 C        1068.6179 -164.8707  -10.9738 C.3     706        0    0.0000
   4238 C        1067.0918 -164.8936  -10.8336 C.3     706        0    0.0000
   4239 H        1068.9240 -165.4562  -11.8498 H       706        0    0.0000
   4240 H        1069.0831 -165.3440  -10.1003 H       706        0    0.0000
   4241 H        1066.6650 -163.9580  -11.2157 H       706        0    0.0000
   4242 H        1066.6703 -165.7037  -11.4416 H       706        0    0.0000
   4243 C        1066.6349 -165.0874   -9.3467 C.3     707        0    0.0000
   4244 C        1065.1096 -165.1551   -9.2119 C.3     707        0    0.0000
   4245 H        1067.0883 -166.0060   -8.9543 H       707        0    0.0000
   4246 H        1067.0292 -164.2594   -8.7447 H       707        0    0.0000
   4247 H        1064.6404 -164.4147   -9.8717 H       707        0    0.0000
   4248 H        1064.7468 -166.1390   -9.5343 H       707        0    0.0000
   4249 C        1064.6309 -164.8969   -7.7416 C.3     708        0    0.0000
   4250 C        1063.4142 -165.7513   -7.3685 C.3     708        0    0.0000
   4251 H        1065.4620 -165.1068   -7.0571 H       708        0    0.0000
   4252 H        1064.3914 -163.8323   -7.6295 H       708        0    0.0000
   4253 H        1063.3979 -166.6669   -7.9726 H       708        0    0.0000
   4254 H        1063.4834 -166.0667   -6.3201 H       708        0    0.0000
   4255 C        1062.0631 -164.9842   -7.5772 C.3     709        0    0.0000
   4256 C        1060.8547 -165.9271   -7.5840 C.3     709        0    0.0000
   4257 H        1061.9534 -164.2380   -6.7804 H       709        0    0.0000
   4258 H        1062.1134 -164.4303   -8.5228 H       709        0    0.0000
   4259 H        1060.1642 -165.6477   -8.3895 H       709        0    0.0000
   4260 H        1061.1804 -166.9543   -7.7902 H       709        0    0.0000
   4261 C        1060.0778 -165.9071   -6.2226 C.3     710        0    0.0000
   4262 C        1059.4725 -167.2727   -5.8791 C.3     710        0    0.0000
   4263 H        1060.7645 -165.5894   -5.4282 H       710        0    0.0000
   4264 H        1059.2874 -165.1484   -6.2778 H       710        0    0.0000
   4265 H        1058.5138 -167.4001   -6.3968 H       710        0    0.0000
   4266 H        1060.1309 -168.0757   -6.2331 H       710        0    0.0000
   4267 C        1059.2424 -167.4500   -4.3386 C.3     711        0    0.0000
   4268 C        1057.7827 -167.7751   -4.0030 C.3     711        0    0.0000
   4269 H        1059.8994 -168.2486   -3.9725 H       711        0    0.0000
   4270 H        1059.5500 -166.5296   -3.8268 H       711        0    0.0000
   4271 H        1057.4626 -167.2034   -3.1232 H       711        0    0.0000
   4272 H        1057.1299 -167.4715   -4.8308 H       711        0    0.0000
   4273 C        1057.5638 -169.3015   -3.7208 C.3     712        0    0.0000
   4274 C        1056.0782 -169.6693   -3.6355 C.3     712        0    0.0000
   4275 H        1058.0499 -169.8813   -4.5152 H       712        0    0.0000
   4276 H        1058.0707 -169.5641   -2.7838 H       712        0    0.0000
   4277 H        1055.4889 -169.0053   -4.2799 H       712        0    0.0000
   4278 H        1055.9215 -170.6897   -4.0068 H       712        0    0.0000
   4279 C        1055.5256 -169.5739   -2.1716 C.3     713        0    0.0000
   4280 C        1054.0265 -169.2571   -2.1360 C.3     713        0    0.0000
   4281 H        1055.7222 -170.5226   -1.6570 H       713        0    0.0000
   4282 H        1056.0864 -168.8007   -1.6317 H       713        0    0.0000
   4283 H        1053.7869 -168.4877   -2.8806 H       713        0    0.0000
   4284 H        1053.4473 -170.1485   -2.4066 H       713        0    0.0000
   4285 C        1053.5579 -168.7587   -0.7256 C.3     714        0    0.0000
   4286 C        1052.1876 -169.3239   -0.3355 C.3     714        0    0.0000
   4287 H        1054.3097 -169.0472    0.0193 H       714        0    0.0000
   4288 H        1053.5245 -167.6621   -0.7312 H       714        0    0.0000
   4289 H        1052.0103 -170.2733   -0.8559 H       714        0    0.0000
   4290 H        1052.1638 -169.5445    0.7389 H       714        0    0.0000
   4291 C        1051.0189 -168.3358   -0.6744 C.3     715        0    0.0000
   4292 C        1049.6534 -169.0319   -0.6828 C.3     715        0    0.0000
   4293 H        1051.0210 -167.5206    0.0597 H       715        0    0.0000
   4294 H        1051.2144 -167.8792   -1.6526 H       715        0    0.0000
   4295 H        1049.0594 -168.6846   -1.5371 H       715        0    0.0000
   4296 H        1049.7837 -170.1139   -0.8088 H       715        0    0.0000
   4297 C        1048.8450 -168.7702    0.6345 C.3     716        0    0.0000
   4298 C        1048.1178 -170.0256    1.1288 C.3     716        0    0.0000
   4299 H        1049.5347 -168.4067    1.4064 H       716        0    0.0000
   4300 H        1048.1230 -167.9646    0.4523 H       716        0    0.0000
   4301 H        1047.1627 -170.1393    0.6012 H       716        0    0.0000
   4302 H        1048.7122 -170.9191    0.9003 H       716        0    0.0000
   4303 C        1047.8412 -169.9834    2.6712 C.3     717        0    0.0000
   4304 C        1046.3486 -170.1065    2.9972 C.3     717        0    0.0000
   4305 H        1048.3997 -170.7953    3.1530 H       717        0    0.0000
   4306 H        1048.2384 -169.0443    3.0762 H       717        0    0.0000
   4307 H        1046.0770 -169.3987    3.7900 H       717        0    0.0000
   4308 H        1045.7487 -169.8405    2.1183 H       717        0    0.0000
   4309 C        1045.9583 -171.5537    3.4565 C.3     718        0    0.0000
   4310 C        1044.4417 -171.7315    3.5895 C.3     718        0    0.0000
   4311 H        1046.3595 -172.2745    2.7331 H       718        0    0.0000
   4312 H        1046.4473 -171.7643    4.4155 H       718        0    0.0000
   4313 H        1043.9783 -171.7641    2.5957 H       718        0    0.0000
   4314 H        1044.2163 -172.6898    4.0738 H       718        0    0.0000
   4315 C        1043.7787 -170.5780    4.4186 C.3     719        0    0.0000
   4316 C        1042.2651 -170.7670    4.5697 C.3     719        0    0.0000
   4317 H        1044.2531 -170.5352    5.4068 H       719        0    0.0000
   4318 H        1043.9910 -169.6212    3.9255 H       719        0    0.0000
   4319 H        1041.8361 -171.1331    3.6287 H       719        0    0.0000
   4320 H        1042.0555 -171.5300    5.3294 H       719        0    0.0000
   4321 C        1041.5380 -169.4383    4.9735 C.3     720        0    0.0000
   4322 C        1040.3154 -169.6922    5.8625 C.3     720        0    0.0000
   4323 H        1042.2524 -168.7880    5.4932 H       720        0    0.0000
   4324 H        1041.2362 -168.9091    4.0612 H       720        0    0.0000
   4325 H        1040.5294 -170.4984    6.5751 H       720        0    0.0000
   4326 H        1040.0905 -168.7977    6.4568 H       720        0    0.0000
   4327 C        1039.0448 -170.0780    5.0293 C.3     721        0    0.0000
   4328 C        1038.0393 -170.8953    5.8481 C.3     721        0    0.0000
   4329 H        1038.5714 -169.1596    4.6607 H       721        0    0.0000
   4330 H        1039.3606 -170.6463    4.1457 H       721        0    0.0000
   4331 H        1037.6405 -171.7179    5.2413 H       721        0    0.0000
   4332 H        1038.5403 -171.3536    6.7098 H       721        0    0.0000
   4333 C        1036.8440 -170.0222    6.3637 C.3     722        0    0.0000
   4334 C        1036.2739 -170.5421    7.6881 C.3     722        0    0.0000
   4335 H        1037.1875 -168.9871    6.4826 H       722        0    0.0000
   4336 H        1036.0598 -170.0078    5.5966 H       722        0    0.0000
   4337 H        1036.0452 -171.6118    7.6051 H       722        0    0.0000
   4338 H        1037.0211 -170.4406    8.4849 H       722        0    0.0000
   4339 C        1034.9730 -169.7789    8.1153 C.3     723        0    0.0000
   4340 C        1034.2106 -170.5079    9.2272 C.3     723        0    0.0000
   4341 H        1035.2477 -168.7698    8.4469 H       723        0    0.0000
   4342 H        1034.3293 -169.6570    7.2353 H       723        0    0.0000
   4343 H        1034.2667 -171.5926    9.0731 H       723        0    0.0000
   4344 H        1034.6761 -170.3032   10.1992 H       723        0    0.0000
   4345 C        1032.7025 -170.0840    9.2900 C.3     724        0    0.0000
   4346 C        1032.1183 -170.2239   10.7000 C.3     724        0    0.0000
   4347 H        1032.6125 -169.0460    8.9466 H       724        0    0.0000
   4348 H        1032.1324 -170.7001    8.5836 H       724        0    0.0000
   4349 H        1032.2129 -171.2609   11.0452 H       724        0    0.0000
   4350 H        1032.6854 -169.6040   11.4054 H       724        0    0.0000
   4351 C        1030.6084 -169.8066   10.7614 C.3     725        0    0.0000
   4352 C        1029.9550 -170.1854   12.0949 C.3     725        0    0.0000
   4353 H        1030.5338 -168.7241   10.6000 H       725        0    0.0000
   4354 H        1030.0750 -170.2863    9.9314 H       725        0    0.0000
   4355 H        1029.9357 -171.2765   12.2079 H       725        0    0.0000
   4356 H        1030.5486 -169.7927   12.9298 H       725        0    0.0000
   4357 C        1028.4905 -169.6390   12.2154 C.3     726        0    0.0000
   4358 C        1027.9956 -169.6186   13.6659 C.3     726        0    0.0000
   4359 H        1028.4546 -168.6279   11.7914 H       726        0    0.0000
   4360 H        1027.8287 -170.2621   11.6010 H       726        0    0.0000
   4361 H        1027.9385 -170.6416   14.0582 H       726        0    0.0000
   4362 H        1028.7096 -169.0777   14.2993 H       726        0    0.0000
   4363 C        1026.5868 -168.9451   13.8035 C.3     727        0    0.0000
   4364 C        1025.8142 -169.4585   15.0237 C.3     727        0    0.0000
   4365 H        1026.7196 -167.8583   13.8724 H       727        0    0.0000
   4366 H        1026.0131 -169.1350   12.8879 H       727        0    0.0000
   4367 H        1025.6514 -170.5400   14.9381 H       727        0    0.0000
   4368 H        1026.4031 -169.2998   15.9357 H       727        0    0.0000
   4369 C        1024.4257 -168.7499   15.1890 C.3     728        0    0.0000
   4370 C        1023.9333 -168.7685   16.6403 C.3     728        0    0.0000
   4371 H        1024.5123 -167.7154   14.8344 H       728        0    0.0000
   4372 H        1023.6957 -169.2463   14.5377 H       728        0    0.0000
   4373 H        1023.5048 -169.7496   16.8797 H       728        0    0.0000
   4374 H        1024.7765 -168.6172   17.3257 H       728        0    0.0000
   4375 C        1022.8541 -167.6653   16.9157 C.3     729        0    0.0000
   4376 C        1021.6415 -168.2155   17.6744 C.3     729        0    0.0000
   4377 H        1023.3179 -166.8517   17.4871 H       729        0    0.0000
   4378 H        1022.5353 -167.2357   15.9579 H       729        0    0.0000
   4379 H        1021.1223 -168.9633   17.0623 H       729        0    0.0000
   4380 H        1021.9697 -168.7284   18.5870 H       729        0    0.0000
   4381 C        1020.6245 -167.0887   18.0661 C.3     730        0    0.0000
   4382 C        1019.7394 -167.4912   19.2510 C.3     730        0    0.0000
   4383 H        1021.1834 -166.1760   18.3071 H       730        0    0.0000
   4384 H        1020.0016 -166.8556   17.1936 H       730        0    0.0000
   4385 H        1019.1312 -168.3651   18.9864 H       730        0    0.0000
   4386 H        1020.3636 -167.7881   20.1029 H       730        0    0.0000
   4387 C        1018.7871 -166.3307   19.7025 C.3     731        0    0.0000
   4388 C        1017.5148 -166.8532   20.3786 C.3     731        0    0.0000
   4389 H        1019.3337 -165.6712   20.3879 H       731        0    0.0000
   4390 H        1018.5258 -165.7262   18.8250 H       731        0    0.0000
   4391 H        1016.9144 -167.4246   19.6599 H       731        0    0.0000
   4392 H        1017.7765 -167.5437   21.1899 H       731        0    0.0000
   4393 C        1016.6351 -165.6955   20.9644 C.3     732        0    0.0000
   4394 C        1015.5585 -166.2130   21.9248 C.3     732        0    0.0000
   4395 H        1017.2885 -164.9816   21.4812 H       732        0    0.0000
   4396 H        1016.1683 -165.1513   20.1340 H       732        0    0.0000
   4397 H        1014.8888 -166.9062   21.4009 H       732        0    0.0000
   4398 H        1016.0235 -166.7802   22.7407 H       732        0    0.0000
   4399 C        1014.7032 -165.0520   22.5399 C.3     733        0    0.0000
   4400 C        1013.3807 -165.5543   23.1295 C.3     733        0    0.0000
   4401 H        1015.2945 -164.5501   23.3158 H       733        0    0.0000
   4402 H        1014.5081 -164.3053   21.7602 H       733        0    0.0000
   4403 H        1012.7662 -166.0082   22.3421 H       733        0    0.0000
   4404 H        1013.5735 -166.3397   23.8707 H       733        0    0.0000
   4405 C        1012.5603 -164.4059   23.8118 C.3     734        0    0.0000
   4406 C        1011.3372 -164.9362   24.5682 C.3     734        0    0.0000
   4407 H        1013.2195 -163.8601   24.4982 H       734        0    0.0000
   4408 H        1012.2455 -163.6906   23.0419 H       734        0    0.0000
   4409 H        1010.6578 -165.4462   23.8741 H       734        0    0.0000
   4410 H        1011.6480 -165.6821   25.3101 H       734        0    0.0000
   4411 C        1010.5496 -163.7945   25.2989 C.3     735        0    0.0000
   4412 C        1009.1789 -164.2630   25.7995 C.3     735        0    0.0000
   4413 H        1011.1531 -163.4309   26.1398 H       735        0    0.0000
   4414 H        1010.4296 -162.9501   24.6089 H       735        0    0.0000
   4415 H        1008.5541 -164.5712   24.9521 H       735        0    0.0000
   4416 H        1009.2944 -165.1443   26.4427 H       735        0    0.0000
   4417 C        1008.4263 -163.1466   26.6024 C.3     736        0    0.0000
   4418 C        1007.0594 -163.6180   27.1107 C.3     736        0    0.0000
   4419 H        1009.0540 -162.8338   27.4461 H       736        0    0.0000
   4420 H        1008.3051 -162.2677   25.9571 H       736        0    0.0000
   4421 H        1006.3963 -163.8320   26.2633 H       736        0    0.0000
   4422 H        1007.1688 -164.5556   27.6697 H       736        0    0.0000
   4423 C        1006.3708 -162.5558   28.0354 C.3     737        0    0.0000
   4424 C        1004.8946 -162.8786   28.2916 C.3     737        0    0.0000
   4425 H        1006.9160 -162.5083   28.9862 H       737        0    0.0000
   4426 H        1006.4642 -161.5672   27.5689 H       737        0    0.0000
   4427 H        1004.3354 -162.8559   27.3481 H       737        0    0.0000
   4428 H        1004.7959 -163.8952   28.6920 H       737        0    0.0000
   4429 C        1004.2323 -161.8735   29.2959 C.3     738        0    0.0000
   4430 C        1002.7285 -162.1208   29.4583 C.3     738        0    0.0000
   4431 H        1004.7349 -161.9611   30.2671 H       738        0    0.0000
   4432 H        1004.4091 -160.8506   28.9407 H       738        0    0.0000
   4433 H        1002.2164 -161.9675   28.5003 H       738        0    0.0000
   4434 H        1002.5479 -163.1632   29.7488 H       738        0    0.0000
   4435 C        1002.0839 -161.1781   30.5322 C.3     739        0    0.0000
   4436 C        1000.5578 -161.3116   30.5814 C.3     739        0    0.0000
   4437 H        1002.5139 -161.4140   31.5135 H       739        0    0.0000
   4438 H        1002.3638 -160.1416   30.3065 H       739        0    0.0000
   4439 H        1000.1250 -161.0403   29.6105 H       739        0    0.0000
   4440 H        1000.2775 -162.3552   30.7707 H       739        0    0.0000
   4441 C         999.9177 -160.4073   31.6904 C.3     740        0    0.0000
   4442 C         998.3867 -160.4787   31.6859 C.3     740        0    0.0000
   4443 H        1000.3059 -160.7185   32.6681 H       740        0    0.0000
   4444 H        1000.2465 -159.3721   31.5359 H       740        0    0.0000
   4445 H         997.9974 -160.1453   30.7159 H       740        0    0.0000
   4446 H         998.0582 -161.5171   31.8172 H       740        0    0.0000
   4447 C         997.7477 -159.5998   32.8159 C.3     741        0    0.0000
   4448 C         996.2159 -159.6398   32.7865 C.3     741        0    0.0000
   4449 H         998.1146 -159.9520   33.7879 H       741        0    0.0000
   4450 H         998.0992 -158.5669   32.7019 H       741        0    0.0000
   4451 H         995.8487 -159.2808   31.8170 H       741        0    0.0000
   4452 H         995.8644 -160.6736   32.8933 H       741        0    0.0000
   4453 C         995.5769 -158.7690   33.9227 C.3     742        0    0.0000
   4454 C         994.0450 -158.7964   33.8837 C.3     742        0    0.0000
   4455 H         995.9351 -159.1354   34.8928 H       742        0    0.0000
   4456 H         995.9373 -157.7377   33.8228 H       742        0    0.0000
   4457 H         993.6870 -158.4341   32.9121 H       742        0    0.0000
   4458 H         993.6844 -159.8273   33.9878 H       742        0    0.0000
   4459 C         993.4061 -157.9209   35.0162 C.3     743        0    0.0000
   4460 C         991.8742 -157.9615   34.9874 C.3     743        0    0.0000
   4461 H         993.7736 -158.2755   35.9872 H       743        0    0.0000
   4462 H         993.7571 -156.8875   34.9048 H       743        0    0.0000
   4463 H         991.5069 -157.6135   34.0140 H       743        0    0.0000
   4464 H         991.5230 -158.9941   35.1059 H       743        0    0.0000
   4465 C         991.2351 -157.0781   36.1138 C.3     744        0    0.0000
   4466 C         989.7051 -157.1670   36.1238 C.3     744        0    0.0000
   4467 H         991.6368 -157.3967   37.0837 H       744        0    0.0000
   4468 H         991.5505 -156.0375   35.9687 H       744        0    0.0000
   4469 H         989.3045 -156.8665   35.1478 H       744        0    0.0000
   4470 H         989.3895 -158.2048   36.2879 H       744        0    0.0000
   4471 C         989.0647 -156.2629   37.2329 C.3     745        0    0.0000
   4472 C         987.5728 -156.0117   36.9877 C.3     745        0    0.0000
   4473 H         989.2098 -156.7436   38.2084 H       745        0    0.0000
   4474 H         989.6060 -155.3093   37.2680 H       745        0    0.0000
   4475 H         987.4317 -155.4828   36.0370 H       745        0    0.0000
   4476 H         987.0401 -156.9666   36.8991 H       745        0    0.0000
   4477 C         986.9153 -155.1711   38.1360 C.3     746        0    0.0000
   4478 C         985.5873 -155.7726   38.6090 C.3     746        0    0.0000
   4479 H         987.6193 -155.1071   38.9750 H       746        0    0.0000
   4480 H         986.7577 -154.1461   37.7781 H       746        0    0.0000
   4481 H         984.9238 -155.9404   37.7516 H       746        0    0.0000
   4482 H         985.7612 -156.7530   39.0694 H       746        0    0.0000
   4483 C         984.8529 -154.8516   39.6435 C.3     747        0    0.0000
   4484 C         983.4191 -154.5227   39.2130 C.3     747        0    0.0000
   4485 H         984.8472 -155.3514   40.6201 H       747        0    0.0000
   4486 H         985.4303 -153.9270   39.7661 H       747        0    0.0000
   4487 H         983.4282 -153.9753   38.2623 H       747        0    0.0000
   4488 H         982.8571 -155.4485   39.0382 H       747        0    0.0000
   4489 C         982.6597 -153.6649   40.2829 C.3     748        0    0.0000
   4490 C         982.3874 -152.2373   39.7961 C.3     748        0    0.0000
   4491 H         981.7148 -154.1643   40.5308 H       748        0    0.0000
   4492 H         983.2547 -153.6411   41.2043 H       748        0    0.0000
   4493 H         983.0695 -151.9832   38.9753 H       748        0    0.0000
   4494 H         981.3694 -152.1649   39.3936 H       748        0    0.0000
   4495 C         982.5554 -151.1777   40.9391 C.3     749        0    0.0000
   4496 C         981.2724 -150.9983   41.7581 C.3     749        0    0.0000
   4497 H         983.3786 -151.4908   41.5933 H       749        0    0.0000
   4498 H         982.8539 -150.2208   40.4931 H       749        0    0.0000
   4499 H         980.7099 -150.1310   41.3908 H       749        0    0.0000
   4500 H         980.6212 -151.8722   41.6331 H       749        0    0.0000
   4501 C         981.5652 -150.8006   43.2854 C.3     750        0    0.0000
   4502 C         980.2915 -150.8710   44.1349 C.3     750        0    0.0000
   4503 H         982.2776 -151.5687   43.6112 H       750        0    0.0000
   4504 H         982.0595 -149.8316   43.4282 H       750        0    0.0000
   4505 H         979.5256 -151.4609   43.6163 H       750        0    0.0000
   4506 H         980.4986 -151.3859   45.0813 H       750        0    0.0000
   4507 C         979.7079 -149.4505   44.4497 C.3     751        0    0.0000
   4508 C         978.2020 -149.4905   44.7316 C.3     751        0    0.0000
   4509 H         980.2411 -149.0324   45.3125 H       751        0    0.0000
   4510 H         979.9142 -148.7873   43.6004 H       751        0    0.0000
   4511 H         977.6422 -149.4731   43.7883 H       751        0    0.0000
   4512 H         977.9388 -150.4279   45.2369 H       751        0    0.0000
   4513 C         977.7317 -148.2879   45.6205 C.3     752        0    0.0000
   4514 C         976.4160 -148.5836   46.3489 C.3     752        0    0.0000
   4515 H         978.5201 -148.0559   46.3472 H       752        0    0.0000
   4516 H         977.6186 -147.4012   44.9845 H       752        0    0.0000
   4517 H         975.6388 -148.8581   45.6249 H       752        0    0.0000
   4518 H         976.5415 -149.4441   47.0178 H       752        0    0.0000
   4519 C         975.9141 -147.3593   47.1893 C.3     753        0    0.0000
   4520 C         974.3846 -147.2630   47.2192 C.3     753        0    0.0000
   4521 H         976.3055 -147.4470   48.2104 H       753        0    0.0000
   4522 H         976.3405 -146.4413   46.7663 H       753        0    0.0000
   4523 H         974.0065 -146.9769   46.2299 H       753        0    0.0000
   4524 H         973.9506 -148.2435   47.4509 H       753        0    0.0000
   4525 C         973.8754 -146.2224   48.2752 C.3     754        0    0.0000
   4526 C         972.4001 -146.4332   48.6337 C.3     754        0    0.0000
   4527 H         974.4963 -146.3004   49.1763 H       754        0    0.0000
   4528 H         974.0248 -145.2115   47.8761 H       754        0    0.0000
   4529 H         971.7897 -146.4448   47.7224 H       754        0    0.0000
   4530 H         972.2659 -147.4097   49.1153 H       754        0    0.0000
   4531 C         971.8564 -145.3181   49.5921 C.3     755        0    0.0000
   4532 C         970.3266 -145.2273   49.5686 C.3     755        0    0.0000
   4533 H         972.2053 -145.5267   50.6110 H       755        0    0.0000
   4534 H         972.2949 -144.3559   49.2997 H       755        0    0.0000
   4535 H         969.9769 -145.0343   48.5469 H       755        0    0.0000
   4536 H         969.8882 -146.1848   49.8761 H       755        0    0.0000
   4537 C         969.7841 -144.0975   50.5102 C.3     756        0    0.0000
   4538 C         968.2726 -144.2084   50.7395 C.3     756        0    0.0000
   4539 H         970.3148 -144.1510   51.4689 H       756        0    0.0000
   4540 H         970.0272 -143.1228   50.0695 H       756        0    0.0000
   4541 H         967.7376 -144.0765   49.7909 H       756        0    0.0000
   4542 H         968.0205 -145.2110   51.1067 H       756        0    0.0000
   4543 C         967.7482 -143.1472   51.7673 C.3     757        0    0.0000
   4544 C         966.2178 -143.0673   51.7898 C.3     757        0    0.0000
   4545 H         968.1261 -143.4040   52.7647 H       757        0    0.0000
   4546 H         968.1723 -142.1681   51.5121 H       757        0    0.0000
   4547 H         965.8398 -142.8096   50.7926 H       757        0    0.0000
   4548 H         965.7937 -144.0466   52.0440 H       757        0    0.0000
   4549 C         965.6932 -142.0070   52.8185 C.3     758        0    0.0000
   4550 C         964.1628 -141.9278   52.8416 C.3     758        0    0.0000
   4551 H         966.0717 -142.2644   53.8155 H       758        0    0.0000
   4552 H         966.1169 -141.0276   52.5638 H       758        0    0.0000
   4553 H         963.7858 -141.6440   51.8512 H       758        0    0.0000
   4554 H         963.7385 -142.9135   53.0696 H       758        0    0.0000
   4555 C         963.6372 -140.8949   53.8973 C.3     759        0    0.0000
   4556 C         962.1086 -140.7830   53.8893 C.3     759        0    0.0000
   4557 H         963.9871 -141.1971   54.8922 H       759        0    0.0000
   4558 H         964.0872 -139.9163   53.6889 H       759        0    0.0000
   4559 H         961.7589 -140.4804   52.8945 H       759        0    0.0000
   4560 H         961.6588 -141.7617   54.0973 H       759        0    0.0000
   4561 C         961.5830 -139.7505   54.9454 C.3     760        0    0.0000
   4562 C         960.0547 -139.6353   54.9342 C.3     760        0    0.0000
   4563 H         961.9301 -140.0550   55.9406 H       760        0    0.0000
   4564 H         962.0355 -138.7726   54.7394 H       760        0    0.0000
   4565 H         959.7071 -139.3403   53.9364 H       760        0    0.0000
   4566 H         959.6023 -140.6112   55.1497 H       760        0    0.0000
   4567 C         959.5299 -138.5928   55.9808 C.3     761        0    0.0000
   4568 C         958.0004 -138.4960   55.9873 C.3     761        0    0.0000
   4569 H         959.8930 -138.8776   56.9762 H       761        0    0.0000
   4570 H         959.9680 -137.6129   55.7541 H       761        0    0.0000
   4571 H         957.6371 -138.2126   54.9917 H       761        0    0.0000
   4572 H         957.5623 -139.4756   56.2154 H       761        0    0.0000
   4573 C         957.4755 -137.4521   57.0326 C.3     762        0    0.0000
   4574 C         955.9470 -137.3396   57.0239 C.3     762        0    0.0000
   4575 H         957.8255 -137.7444   58.0304 H       762        0    0.0000
   4576 H         957.9258 -136.4759   56.8141 H       762        0    0.0000
   4577 H         955.5971 -137.0477   56.0260 H       762        0    0.0000
   4578 H         955.4967 -138.3157   57.2427 H       762        0    0.0000
   4579 C         955.4223 -136.2954   58.0688 C.3     763        0    0.0000
   4580 C         953.8966 -136.1538   58.0325 C.3     763        0    0.0000
   4581 H         955.7479 -136.6031   59.0702 H       763        0    0.0000
   4582 H         955.8949 -135.3260   57.8679 H       763        0    0.0000
   4583 H         953.5703 -135.8544   57.0288 H       763        0    0.0000
   4584 H         953.4240 -137.1215   58.2418 H       763        0    0.0000
   4585 C         953.3729 -135.1009   59.0692 C.3     764        0    0.0000
   4586 C         951.8445 -134.9880   59.0607 C.3     764        0    0.0000
   4587 H         953.7235 -135.3846   60.0692 H       764        0    0.0000
   4588 H         953.8233 -134.1267   58.8420 H       764        0    0.0000
   4589 H         951.4933 -134.7121   58.0586 H       764        0    0.0000
   4590 H         951.3940 -135.9604   59.2957 H       764        0    0.0000
   4591 C         951.3213 -133.9271   60.0894 C.3     765        0    0.0000
   4592 C         949.7924 -133.8199   60.0865 C.3     765        0    0.0000
   4593 H         951.6774 -134.1999   61.0906 H       765        0    0.0000
   4594 H         951.7671 -132.9535   59.8509 H       765        0    0.0000
   4595 H         949.4365 -133.5451   59.0858 H       765        0    0.0000
   4596 H         949.3466 -134.7940   60.3229 H       765        0    0.0000
   4597 C         949.2691 -132.7611   61.1173 C.3     766        0    0.0000
   4598 C         947.7871 -132.4307   60.9090 C.3     766        0    0.0000
   4599 H         949.4295 -133.1462   62.1320 H       766        0    0.0000
   4600 H         949.8740 -131.8504   61.0267 H       766        0    0.0000
   4601 H         947.6322 -132.0128   59.9065 H       766        0    0.0000
   4602 H         947.1860 -133.3467   60.9648 H       766        0    0.0000
   4603 C         947.2512 -131.4091   61.9704 C.3     767        0    0.0000
   4604 C         945.7706 -131.6337   62.2970 C.3     767        0    0.0000
   4605 H         947.8550 -131.4970   62.8821 H       767        0    0.0000
   4606 H         947.4021 -130.3915   61.5895 H       767        0    0.0000
   4607 H         945.1896 -131.7185   61.3702 H       767        0    0.0000
   4608 H         945.6438 -132.5807   62.8360 H       767        0    0.0000
   4609 C         945.1711 -130.4741   63.1649 C.3     768        0    0.0000
   4610 C         944.5425 -130.9871   64.4652 C.3     768        0    0.0000
   4611 H         945.9669 -129.7535   63.3906 H       768        0    0.0000
   4612 H         944.4207 -129.9387   62.5700 H       768        0    0.0000
   4613 H         943.5121 -131.3155   64.2809 H       768        0    0.0000
   4614 H         945.0925 -131.8641   64.8284 H       768        0    0.0000
   4615 C         944.5314 -129.8959   65.5906 C.3     769        0    0.0000
   4616 C         943.1530 -129.2464   65.7564 C.3     769        0    0.0000
   4617 H         944.8452 -130.3582   66.5347 H       769        0    0.0000
   4618 H         945.2807 -129.1317   65.3497 H       769        0    0.0000
   4619 H         942.5552 -129.3958   64.8487 H       769        0    0.0000
   4620 H         942.6063 -129.7281   66.5765 H       769        0    0.0000
   4621 C         943.2517 -127.7095   66.0491 C.3     770        0    0.0000
   4622 C         941.8936 -127.0083   65.9358 C.3     770        0    0.0000
   4623 H         943.6659 -127.5669   67.0548 H       770        0    0.0000
   4624 H         943.9662 -127.2611   65.3476 H       770        0    0.0000
   4625 H         941.7885 -126.5498   64.9447 H       770        0    0.0000
   4626 H         941.0828 -127.7410   66.0316 H       770        0    0.0000
   4627 C         941.7044 -125.8997   67.0280 C.3     771        0    0.0000
   4628 C         940.2285 -125.6662   67.3691 C.3     771        0    0.0000
   4629 H         942.2569 -126.1932   67.9292 H       771        0    0.0000
   4630 H         942.1595 -124.9683   66.6689 H       771        0    0.0000
   4631 H         939.6653 -125.4266   66.4586 H       771        0    0.0000
   4632 H         939.7878 -126.5829   67.7801 H       771        0    0.0000
   4633 C         940.0346 -124.5044   68.4036 C.3     772        0    0.0000
   4634 C         938.6232 -123.9092   68.3507 C.3     772        0    0.0000
   4635 H         940.2434 -124.8884   69.4098 H       772        0    0.0000
   4636 H         940.7795 -123.7244   68.2032 H       772        0    0.0000
   4637 H         938.5872 -123.0908   67.6210 H       772        0    0.0000
   4638 H         937.9077 -124.6675   68.0092 H       772        0    0.0000
   4639 C         938.1555 -123.3645   69.7444 C.3     773        0    0.0000
   4640 C         936.6390 -123.1513   69.8055 C.3     773        0    0.0000
   4641 H         938.4677 -124.0714   70.5231 H       773        0    0.0000
   4642 H         938.6766 -122.4209   69.9482 H       773        0    0.0000
   4643 H         936.2293 -123.0710   68.7911 H       773        0    0.0000
   4644 H         936.1558 -124.0183   70.2728 H       773        0    0.0000
   4645 C         936.2522 -121.8627   70.6102 C.3     774        0    0.0000
   4646 C         934.8408 -121.3694   70.2733 C.3     774        0    0.0000
   4647 H         936.3289 -122.0794   71.6829 H       774        0    0.0000
   4648 H         936.9868 -121.0771   70.3942 H       774        0    0.0000
   4649 H         934.8380 -120.2769   70.1737 H       774        0    0.0000
   4650 H         934.5216 -121.7749   69.3052 H       774        0    0.0000
   4651 C         933.7918 -121.7800   71.3636 C.3     775        0    0.0000
   4652 C         932.5052 -120.9520   71.2728 C.3     775        0    0.0000
   4653 H         933.5616 -122.8466   71.2488 H       775        0    0.0000
   4654 H         934.2468 -121.6609   72.3547 H       775        0    0.0000
   4655 H         932.4166 -120.5028   70.2759 H       775        0    0.0000
   4656 H         931.6304 -121.6007   71.4050 H       775        0    0.0000
   4657 C         932.4556 -119.8116   72.3473 C.3     776        0    0.0000
   4658 C         931.2424 -118.8932   72.1639 C.3     776        0    0.0000
   4659 H         932.4355 -120.2667   73.3453 H       776        0    0.0000
   4660 H         933.3823 -119.2275   72.2860 H       776        0    0.0000
   4661 H         931.5558 -117.8427   72.2077 H       776        0    0.0000
   4662 H         930.7993 -119.0488   71.1725 H       776        0    0.0000
   4663 C         930.1420 -119.1380   73.2533 C.3     777        0    0.0000
   4664 C         928.8320 -118.4112   72.9292 C.3     777        0    0.0000
   4665 H         929.9625 -120.2169   73.3384 H       777        0    0.0000
   4666 H         930.5264 -118.8049   74.2253 H       777        0    0.0000
   4667 H         929.0200 -117.5951   72.2207 H       777        0    0.0000
   4668 H         928.1317 -119.0990   72.4391 H       777        0    0.0000
   4669 C         928.1474 -117.8211   74.2101 C.3     778        0    0.0000
   4670 C         927.1693 -116.6891   73.8766 C.3     778        0    0.0000
   4671 H         927.6229 -118.6291   74.7348 H       778        0    0.0000
   4672 H         928.9264 -117.4567   74.8913 H       778        0    0.0000
   4673 H         927.6177 -116.0088   73.1420 H       778        0    0.0000
   4674 H         926.2629 -117.0993   73.4142 H       778        0    0.0000
   4675 C         926.7603 -115.8644   75.1454 C.3     779        0    0.0000
   4676 C         925.2667 -115.5207   75.1582 C.3     779        0    0.0000
   4677 H         927.0212 -116.4412   76.0414 H       779        0    0.0000
   4678 H         927.3581 -114.9450   75.1774 H       779        0    0.0000
   4679 H         925.0493 -114.7599   74.3983 H       779        0    0.0000
   4680 H         924.6747 -116.4063   74.8958 H       779        0    0.0000
   4681 C         924.7910 -114.9904   76.5547 C.3     780        0    0.0000
   4682 C         923.7473 -113.8752   76.4278 C.3     780        0    0.0000
   4683 H         924.3777 -115.8287   77.1291 H       780        0    0.0000
   4684 H         925.6639 -114.6273   77.1111 H       780        0    0.0000
   4685 H         923.9441 -113.0899   77.1683 H       780        0    0.0000
   4686 H         923.8200 -113.4025   75.4405 H       780        0    0.0000
   4687 C         922.2853 -114.4040   76.6285 C.3     781        0    0.0000
   4688 C         921.2524 -113.2716   76.6253 C.3     781        0    0.0000
   4689 H         922.0571 -115.1235   75.8323 H       781        0    0.0000
   4690 H         922.2357 -114.9557   77.5754 H       781        0    0.0000
   4691 H         921.6696 -112.3834   76.1348 H       781        0    0.0000
   4692 H         920.3710 -113.5681   76.0433 H       781        0    0.0000
   4693 C         920.7944 -112.8812   78.0728 C.3     782        0    0.0000
   4694 C         919.8910 -111.6431   78.0821 C.3     782        0    0.0000
   4695 H         920.2683 -113.7340   78.5193 H       782        0    0.0000
   4696 H         921.6843 -112.7022   78.6890 H       782        0    0.0000
   4697 H         920.3928 -110.8076   77.5785 H       782        0    0.0000
   4698 H         918.9714 -111.8442   77.5185 H       782        0    0.0000
   4699 C         919.5060 -111.1994   79.5355 C.3     783        0    0.0000
   4700 C         918.2001 -110.3979   79.5714 C.3     783        0    0.0000
   4701 H         919.4165 -112.0928   80.1659 H       783        0    0.0000
   4702 H         920.3261 -110.6012   79.9515 H       783        0    0.0000
   4703 H         917.6400 -110.5495   78.6404 H       783        0    0.0000
   4704 H         917.5601 -110.7581   80.3864 H       783        0    0.0000
   4705 C         918.4504 -108.8627   79.7662 C.3     784        0    0.0000
   4706 C         917.2291 -108.0213   79.3797 C.3     784        0    0.0000
   4707 H         918.7180 -108.6783   80.8141 H       784        0    0.0000
   4708 H         919.3175 -108.5665   79.1629 H       784        0    0.0000
   4709 H         917.5520 -107.0655   78.9489 H       784        0    0.0000
   4710 H         916.6478 -108.5359   78.6046 H       784        0    0.0000
   4711 C         916.2943 -107.7334   80.6048 C.3     785        0    0.0000
   4712 C         914.8156 -107.6744   80.2058 C.3     785        0    0.0000
   4713 H         916.4495 -108.5145   81.3592 H       785        0    0.0000
   4714 H         916.5975 -106.7853   81.0658 H       785        0    0.0000
   4715 H         914.5853 -106.6997   79.7582 H       785        0    0.0000
   4716 H         914.6020 -108.4309   79.4404 H       785        0    0.0000
   4717 C         913.8610 -107.9079   81.4272 C.3     786        0    0.0000
   4718 C         912.7653 -106.8402   81.5205 C.3     786        0    0.0000
   4719 H         913.4092 -108.9036   81.3376 H       786        0    0.0000
   4720 H         914.4588 -107.9148   82.3470 H       786        0    0.0000
   4721 H         912.3185 -106.8465   82.5225 H       786        0    0.0000
   4722 H         913.1986 -105.8429   81.3751 H       786        0    0.0000
   4723 C         911.6315 -107.0582   80.4602 C.3     787        0    0.0000
   4724 C         910.8145 -105.7850   80.2133 C.3     787        0    0.0000
   4725 H         912.0854 -107.4015   79.5225 H       787        0    0.0000
   4726 H         910.9742 -107.8655   80.8062 H       787        0    0.0000
   4727 H         911.4856 -104.9276   80.0789 H       787        0    0.0000
   4728 H         910.2379 -105.8823   79.2850 H       787        0    0.0000
   4729 C         909.8276 -105.4746   81.3910 C.3     788        0    0.0000
   4730 C         909.6953 -103.9709   81.6569 C.3     788        0    0.0000
   4731 H         908.8459 -105.9020   81.1518 H       788        0    0.0000
   4732 H         910.1825 -105.9865   82.2940 H       788        0    0.0000
   4733 H         910.4485 -103.6505   82.3874 H       788        0    0.0000
   4734 H         909.8898 -103.4075   80.7360 H       788        0    0.0000
   4735 C         908.2741 -103.5855   82.1946 C.3     789        0    0.0000
   4736 C         908.3105 -102.3469   83.0966 C.3     789        0    0.0000
   4737 H         907.6087 -103.4092   81.3403 H       789        0    0.0000
   4738 H         907.8607 -104.4396   82.7450 H       789        0    0.0000
   4739 H         908.6608 -102.6219   84.0992 H       789        0    0.0000
   4740 H         909.0267 -101.6153   82.7023 H       789        0    0.0000
   4741 C         906.9061 -101.6619   83.2223 C.3     790        0    0.0000
   4742 C         906.6864 -101.0368   84.6043 C.3     790        0    0.0000
   4743 H         906.8160 -100.8943   82.4437 H       790        0    0.0000
   4744 H         906.1288 -102.4090   83.0194 H       790        0    0.0000
   4745 H         906.4189 -101.8143   85.3306 H       790        0    0.0000
   4746 H         907.6166 -100.5783   84.9620 H       790        0    0.0000
   4747 C         905.5587  -99.9479   84.5914 C.3     791        0    0.0000
   4748 C         904.6632 -100.0243   85.8330 C.3     791        0    0.0000
   4749 H         906.0247  -98.9570   84.5241 H       791        0    0.0000
   4750 H         904.9553 -100.0745   83.6840 H       791        0    0.0000
   4751 H         903.8997 -100.8006   85.6989 H       791        0    0.0000
   4752 H         905.2576 -100.3148   86.7081 H       791        0    0.0000
   4753 C         903.9503  -98.6614   86.1361 C.3     792        0    0.0000
   4754 C         902.4236  -98.7761   86.0650 C.3     792        0    0.0000
   4755 H         904.2557  -98.3164   87.1317 H       792        0    0.0000
   4756 H         904.3049  -97.9100   85.4198 H       792        0    0.0000
   4757 H         902.1209  -99.1656   85.0851 H       792        0    0.0000
   4758 H         902.0651  -99.4934   86.8136 H       792        0    0.0000
   4759 C         901.7127  -97.3994   86.3032 C.3     793        0    0.0000
   4760 C         900.2914  -97.5668   86.8516 C.3     793        0    0.0000
   4761 H         902.3171  -96.8051   86.9996 H       793        0    0.0000
   4762 H         901.6878  -96.8459   85.3563 H       793        0    0.0000
   4763 H         899.6385  -97.9941   86.0805 H       793        0    0.0000
   4764 H         900.2928  -98.2738   87.6904 H       793        0    0.0000
   4765 C         899.6780  -96.2082   87.3369 C.3     794        0    0.0000
   4766 C         898.1602  -96.2928   87.5314 C.3     794        0    0.0000
   4767 H         900.1623  -95.9176   88.2774 H       794        0    0.0000
   4768 H         899.9205  -95.4289   86.6038 H       794        0    0.0000
   4769 H         897.6656  -96.4562   86.5659 H       794        0    0.0000
   4770 H         897.9092  -97.1536   88.1636 H       794        0    0.0000
   4771 C         897.5720  -94.9960   88.1872 C.3     795        0    0.0000
   4772 C         896.0668  -94.8504   87.9379 C.3     795        0    0.0000
   4773 H         897.7739  -95.0220   89.2652 H       795        0    0.0000
   4774 H         898.1054  -94.1246   87.7877 H       795        0    0.0000
   4775 H         895.8646  -94.8263   86.8599 H       795        0    0.0000
   4776 H         895.5331  -95.7209   88.3391 H       795        0    0.0000
   4777 C         895.4791  -93.5523   88.5913 C.3     796        0    0.0000
   4778 C         893.9465  -93.5471   88.5962 C.3     796        0    0.0000
   4779 H         895.8588  -93.4698   89.6173 H       796        0    0.0000
   4780 H         895.8566  -92.6792   88.0446 H       796        0    0.0000
   4781 H         893.5669  -93.6124   87.5690 H       796        0    0.0000
   4782 H         893.5690  -94.4291   89.1282 H       796        0    0.0000
   4783 C         893.3589  -92.2600   89.2712 C.3     797        0    0.0000
   4784 C         891.8275  -92.2821   89.3292 C.3     797        0    0.0000
   4785 H         893.7725  -92.1714   90.2834 H       797        0    0.0000
   4786 H         893.7015  -91.3801   88.7128 H       797        0    0.0000
   4787 H         891.4124  -92.2706   88.3137 H       797        0    0.0000
   4788 H         891.4822  -93.2108   89.8002 H       797        0    0.0000
   4789 C         891.2455  -91.0644   90.1267 C.3     798        0    0.0000
   4790 C         889.9571  -90.5213   89.4990 C.3     798        0    0.0000
   4791 H         891.0572  -91.3769   91.1614 H       798        0    0.0000
   4792 H         892.0052  -90.2742   90.1696 H       798        0    0.0000
   4793 H         890.1423  -90.2213   88.4602 H       798        0    0.0000
   4794 H         889.1931  -91.3079   89.4684 H       798        0    0.0000
   4795 C         889.3854  -89.2918   90.2858 C.3     799        0    0.0000
   4796 C         887.8570  -89.3303   90.3925 C.3     799        0    0.0000
   4797 H         889.8321  -89.2744   91.2877 H       799        0    0.0000
   4798 H         889.7043  -88.3706   89.7826 H       799        0    0.0000
   4799 H         887.4149  -89.4980   89.4026 H       799        0    0.0000
   4800 H         887.5449  -90.1717   91.0236 H       799        0    0.0000
   4801 C         887.2695  -88.0054   90.9903 C.3     800        0    0.0000
   4802 C         886.3597  -88.2655   92.1958 C.3     800        0    0.0000
   4803 H         888.0999  -87.3497   91.2802 H       800        0    0.0000
   4804 H         886.7124  -87.4797   90.2049 H       800        0    0.0000
   4805 H         885.3995  -88.6769   91.8606 H       800        0    0.0000
   4806 H         886.8124  -89.0179   92.8535 H       800        0    0.0000
   4807 C         886.0891  -86.9645   93.0276 C.3     801        0    0.0000
   4808 C         884.6422  -86.4778   92.8904 C.3     801        0    0.0000
   4809 H         886.3206  -87.1640   94.0812 H       801        0    0.0000
   4810 H         886.7824  -86.1819   92.6954 H       801        0    0.0000
   4811 H         884.3597  -86.4322   91.8314 H       801        0    0.0000
   4812 H         883.9587  -87.1903   93.3685 H       801        0    0.0000
   4813 C         884.4279  -85.0636   93.5320 C.3     802        0    0.0000
   4814 C         883.1068  -84.4214   93.0941 C.3     802        0    0.0000
   4815 H         884.4539  -85.1632   94.6242 H       802        0    0.0000
   4816 H         885.2703  -84.4180   93.2544 H       802        0    0.0000
   4817 H         883.1215  -84.2299   92.0140 H       802        0    0.0000
   4818 H         882.2737  -85.1102   93.2807 H       802        0    0.0000
   4819 C         882.8250  -83.0730   93.8426 C.3     803        0    0.0000
   4820 C         881.3255  -82.7866   93.9785 C.3     803        0    0.0000
   4821 H         883.2914  -83.1152   94.8347 H       803        0    0.0000
   4822 H         883.3160  -82.2570   93.2980 H       803        0    0.0000
   4823 H         880.8616  -82.7319   92.9859 H       803        0    0.0000
   4824 H         880.8323  -83.6086   94.5119 H       803        0    0.0000
   4825 C         881.0435  -81.4471   94.7426 C.3     804        0    0.0000
   4826 C         879.5707  -81.0306   94.6605 C.3     804        0    0.0000
   4827 H         881.3421  -81.5686   95.7912 H       804        0    0.0000
   4828 H         881.6812  -80.6594   94.3227 H       804        0    0.0000
   4829 H         879.3022  -80.8009   93.6219 H       804        0    0.0000
   4830 H         878.9268  -81.8608   94.9761 H       804        0    0.0000
   4831 C         879.2564  -79.7801   95.5520 C.3     805        0    0.0000
   4832 C         877.7667  -79.4199   95.5430 C.3     805        0    0.0000
   4833 H         879.5878  -79.9847   96.5776 H       805        0    0.0000
   4834 H         879.8510  -78.9310   95.1925 H       805        0    0.0000
   4835 H         877.3700  -79.4856   94.5223 H       805        0    0.0000
   4836 H         877.2019  -80.1403   96.1476 H       805        0    0.0000
   4837 C         877.5009  -77.9775   96.0966 C.3     806        0    0.0000
   4838 C         876.0148  -77.6046   96.0562 C.3     806        0    0.0000
   4839 H         877.8755  -77.9192   97.1260 H       806        0    0.0000
   4840 H         878.0851  -77.2595   95.5076 H       806        0    0.0000
   4841 H         875.8445  -76.6769   96.6163 H       806        0    0.0000
   4842 H         875.7039  -77.4100   95.0223 H       806        0    0.0000
   4843 C         875.1031  -78.7309   96.6545 C.3     807        0    0.0000
   4844 C         873.6326  -78.3065   96.7346 C.3     807        0    0.0000
   4845 H         875.2017  -79.6315   96.0358 H       807        0    0.0000
   4846 H         875.4741  -78.9927   97.6532 H       807        0    0.0000
   4847 H         872.9926  -79.0837   96.2989 H       807        0    0.0000
   4848 H         873.3286  -78.1993   97.7832 H       807        0    0.0000
   4849 C         873.3632  -76.9537   95.9897 C.3     808        0    0.0000
   4850 C         871.9395  -76.4361   96.2223 C.3     808        0    0.0000
   4851 H         874.0942  -76.2104   96.3311 H       808        0    0.0000
   4852 H         873.5398  -77.0996   94.9168 H       808        0    0.0000
   4853 H         871.4631  -76.2013   95.2624 H       808        0    0.0000
   4854 H         871.3285  -77.2150   96.6950 H       808        0    0.0000
   4855 C         871.9133  -75.1554   97.1260 C.3     809        0    0.0000
   4856 C         870.4918  -74.6224   97.3370 C.3     809        0    0.0000
   4857 H         872.3724  -75.3955   98.0930 H       809        0    0.0000
   4858 H         872.5397  -74.3830   96.6630 H       809        0    0.0000
   4859 H         870.1274  -74.1484   96.4173 H       809        0    0.0000
   4860 H         869.8079  -75.4518   97.5564 H       809        0    0.0000
   4861 C         870.4152  -73.5814   98.5066 C.3     810        0    0.0000
   4862 C         869.1819  -72.6777   98.3999 C.3     810        0    0.0000
   4863 H         870.4038  -74.1221   99.4611 H       810        0    0.0000
   4864 H         871.3286  -72.9738   98.4996 H       810        0    0.0000
   4865 H         869.4049  -71.6865   98.8140 H       810        0    0.0000
   4866 H         868.9164  -72.5264   97.3463 H       810        0    0.0000
   4867 C         867.9424  -73.2726   99.1530 C.3     811        0    0.0000
   4868 C         866.6163  -72.7328   98.6059 C.3     811        0    0.0000
   4869 H         867.9676  -74.3660   99.0669 H       811        0    0.0000
   4870 H         868.0317  -73.0385  100.2210 H       811        0    0.0000
   4871 H         866.7593  -72.3426   97.5906 H       811        0    0.0000
   4872 H         865.8821  -73.5446   98.5310 H       811        0    0.0000
   4873 C         866.0215  -71.5951   99.5055 C.3     812        0    0.0000
   4874 C         864.9457  -70.7816   98.7776 C.3     812        0    0.0000
   4875 H         865.6024  -72.0453  100.4139 H       812        0    0.0000
   4876 H         866.8374  -70.9364   99.8280 H       812        0    0.0000
   4877 H         865.3937  -70.2263   97.9442 H       812        0    0.0000
   4878 H         864.1964  -71.4539   98.3416 H       812        0    0.0000
   4879 C         864.2220  -69.7677   99.7293 C.3     813        0    0.0000
   4880 C         862.9797  -69.1473   99.0807 C.3     813        0    0.0000
   4881 H         863.9434  -70.2879  100.6541 H       813        0    0.0000
   4882 H         864.9315  -68.9802  100.0123 H       813        0    0.0000
   4883 H         863.2780  -68.3987   98.3362 H       813        0    0.0000
   4884 H         862.4119  -69.9170   98.5432 H       813        0    0.0000
   4885 C         862.0375  -68.4664  100.1324 C.3     814        0    0.0000
   4886 C         860.9150  -67.6595   99.4702 C.3     814        0    0.0000
   4887 H         861.6111  -69.2425  100.7800 H       814        0    0.0000
   4888 H         862.6398  -67.8142  100.7769 H       814        0    0.0000
   4889 H         861.3406  -66.8468   98.8686 H       814        0    0.0000
   4890 H         860.3488  -68.2983   98.7812 H       814        0    0.0000
   4891 C         859.9253  -67.0464  100.5199 C.3     815        0    0.0000
   4892 C         858.6925  -66.4197   99.8590 C.3     815        0    0.0000
   4893 H         859.6178  -67.8344  101.2184 H       815        0    0.0000
   4894 H         860.4595  -66.2923  101.1110 H       815        0    0.0000
   4895 H         858.9269  -65.4062   99.5106 H       815        0    0.0000
   4896 H         858.4056  -66.9990   98.9727 H       815        0    0.0000
   4897 C         857.4674  -66.3481  100.8344 C.3     816        0    0.0000
   4898 C         856.4651  -65.2616  100.4294 C.3     816        0    0.0000
   4899 H         856.9731  -67.3273  100.8538 H       816        0    0.0000
   4900 H         857.8352  -66.1606  101.8508 H       816        0    0.0000
   4901 H         856.9619  -64.2839  100.3995 H       816        0    0.0000
   4902 H         856.0893  -65.4551   99.4171 H       816        0    0.0000
   4903 C         855.2476  -65.1798  101.4134 C.3     817        0    0.0000
   4904 C         854.1179  -64.2994  100.8678 C.3     817        0    0.0000
   4905 H         854.8761  -66.1948  101.6016 H       817        0    0.0000
   4906 H         855.5974  -64.7887  102.3769 H       817        0    0.0000
   4907 H         854.2300  -64.1726   99.7838 H       817        0    0.0000
   4908 H         853.1489  -64.7878  101.0293 H       817        0    0.0000
   4909 C         854.0891  -62.8843  101.5418 C.3     818        0    0.0000
   4910 C         853.3770  -61.8416  100.6729 C.3     818        0    0.0000
   4911 H         853.5903  -62.9665  102.5154 H       818        0    0.0000
   4912 H         855.1199  -62.5668  101.7417 H       818        0    0.0000
   4913 H         853.7102  -60.8329  100.9470 H       818        0    0.0000
   4914 H         853.6430  -61.9856   99.6184 H       818        0    0.0000
   4915 C         851.8176  -61.9147  100.8151 C.3     819        0    0.0000
   4916 C         851.1025  -60.9304   99.8830 C.3     819        0    0.0000
   4917 H         851.4907  -62.9400  100.6017 H       819        0    0.0000
   4918 H         851.5475  -61.7086  101.8582 H       819        0    0.0000
   4919 H         851.1569  -59.9150  100.2949 H       819        0    0.0000
   4920 H         851.6054  -60.9022   98.9084 H       819        0    0.0000
   4921 C         849.5966  -61.3067   99.6638 C.3     820        0    0.0000
   4922 C         848.7120  -60.0710   99.4651 C.3     820        0    0.0000
   4923 H         849.5206  -61.9678   98.7916 H       820        0    0.0000
   4924 H         849.2470  -61.8845  100.5284 H       820        0    0.0000
   4925 H         849.2734  -59.2866   98.9425 H       820        0    0.0000
   4926 H         847.8538  -60.3210   98.8292 H       820        0    0.0000
   4927 C         848.1832  -59.4943  100.8236 C.3     821        0    0.0000
   4928 C         847.0460  -58.4864  100.6234 C.3     821        0    0.0000
   4929 H         847.8422  -60.3263  101.4521 H       821        0    0.0000
   4930 H         849.0174  -59.0195  101.3549 H       821        0    0.0000
   4931 H         846.1770  -58.9840  100.1753 H       821        0    0.0000
   4932 H         846.7178  -58.0921  101.5931 H       821        0    0.0000
   4933 C         847.4695  -57.2870   99.7072 C.3     822        0    0.0000
   4934 C         846.2611  -56.5538   99.1144 C.3     822        0    0.0000
   4935 H         848.0803  -56.5911  100.2956 H       822        0    0.0000
   4936 H         848.1113  -57.6663   98.9023 H       822        0    0.0000
   4937 H         846.4431  -56.3218   98.0578 H       822        0    0.0000
   4938 H         845.3757  -57.2006   99.1469 H       822        0    0.0000
   4939 C         845.9420  -55.2217   99.8767 C.3     823        0    0.0000
   4940 C         844.4353  -54.9924  100.0398 C.3     823        0    0.0000
   4941 H         846.4264  -55.2525  100.8605 H       823        0    0.0000
   4942 H         846.3928  -54.3845   99.3296 H       823        0    0.0000
   4943 H         843.9161  -55.9545  100.1306 H       823        0    0.0000
   4944 H         844.2372  -54.4388  100.9660 H       823        0    0.0000
   4945 C         843.8214  -54.1986   98.8355 C.3     824        0    0.0000
   4946 C         842.2954  -54.3278   98.7721 C.3     824        0    0.0000
   4947 H         844.1060  -53.1430   98.9259 H       824        0    0.0000
   4948 H         844.2690  -54.5670   97.9042 H       824        0    0.0000
   4949 H         841.9713  -54.4501   97.7312 H       824        0    0.0000
   4950 H         841.9714  -55.2269   99.3107 H       824        0    0.0000
   4951 C         841.5677  -53.0819   99.3848 C.3     825        0    0.0000
   4952 C         840.1158  -52.9644   98.9076 C.3     825        0    0.0000
   4953 H         841.5992  -53.1565  100.4788 H       825        0    0.0000
   4954 H         842.1268  -52.1775   99.1144 H       825        0    0.0000
   4955 H         840.0858  -52.8644   97.8156 H       825        0    0.0000
   4956 H         839.5634  -53.8792   99.1556 H       825        0    0.0000
   4957 C         839.3773  -51.7388   99.5478 C.3     826        0    0.0000
   4958 C         838.1242  -51.3397   98.7606 C.3     826        0    0.0000
   4959 H         839.1083  -51.9886  100.5816 H       826        0    0.0000
   4960 H         840.0744  -50.8932   99.5992 H       826        0    0.0000
   4961 H         838.4008  -51.0300   97.7451 H       826        0    0.0000
   4962 H         837.4553  -52.2028   98.6555 H       826        0    0.0000
   4963 C         837.3374  -50.1713   99.4485 C.3     827        0    0.0000
   4964 C         836.1155  -49.7346   98.6328 C.3     827        0    0.0000
   4965 H         837.0254  -50.4961  100.4489 H       827        0    0.0000
   4966 H         838.0177  -49.3226   99.5908 H       827        0    0.0000
   4967 H         836.4376  -49.2145   97.7222 H       827        0    0.0000
   4968 H         835.5457  -50.6142   98.3084 H       827        0    0.0000
   4969 C         835.1656  -48.7889   99.4458 C.3     828        0    0.0000
   4970 C         834.0308  -48.2249   98.5837 C.3     828        0    0.0000
   4971 H         834.7515  -49.3479  100.2940 H       828        0    0.0000
   4972 H         835.7598  -47.9693   99.8686 H       828        0    0.0000
   4973 H         833.6389  -49.0057   97.9201 H       828        0    0.0000
   4974 H         833.1970  -47.9057   99.2213 H       828        0    0.0000
   4975 C         834.4954  -47.0075   97.7123 C.3     829        0    0.0000
   4976 C         833.5009  -46.6814   96.5925 C.3     829        0    0.0000
   4977 H         834.6264  -46.1352   98.3647 H       829        0    0.0000
   4978 H         835.4808  -47.2331   97.2863 H       829        0    0.0000
   4979 H         833.8517  -45.8149   96.0186 H       829        0    0.0000
   4980 H         833.4382  -47.5209   95.8891 H       829        0    0.0000
   4981 C         832.0656  -46.3753   97.1432 C.3     830        0    0.0000
   4982 C         831.1038  -45.9230   96.0389 C.3     830        0    0.0000
   4983 H         831.6763  -47.2752   97.6356 H       830        0    0.0000
   4984 H         832.1412  -45.6009   97.9166 H       830        0    0.0000
   4985 H         831.5749  -45.1449   95.4254 H       830        0    0.0000
   4986 H         830.8809  -46.7615   95.3676 H       830        0    0.0000
   4987 C         829.7570  -45.3654   96.6155 C.3     831        0    0.0000
   4988 C         828.7149  -45.1161   95.5196 C.3     831        0    0.0000
   4989 H         829.3655  -46.0783   97.3517 H       831        0    0.0000
   4990 H         829.9631  -44.4341   97.1575 H       831        0    0.0000
   4991 H         829.0127  -45.6253   94.5946 H       831        0    0.0000
   4992 H         827.7481  -45.5415   95.8162 H       831        0    0.0000
   4993 C         828.5240  -43.5898   95.2173 C.3     832        0    0.0000
   4994 C         828.0378  -43.3375   93.7859 C.3     832        0    0.0000
   4995 H         827.8078  -43.1737   95.9367 H       832        0    0.0000
   4996 H         829.4771  -43.0738   95.3874 H       832        0    0.0000
   4997 H         828.5706  -43.9939   93.0865 H       832        0    0.0000
   4998 H         826.9726  -43.5854   93.7013 H       832        0    0.0000
   4999 C         828.2473  -41.8491   93.3409 C.3     833        0    0.0000
   5000 C         827.0615  -41.3126   92.5314 C.3     833        0    0.0000
   5001 H         828.4030  -41.2315   94.2342 H       833        0    0.0000
   5002 H         829.1680  -41.7834   92.7481 H       833        0    0.0000
   5003 H         826.1386  -41.8238   92.8323 H       833        0    0.0000
   5004 H         826.9139  -40.2461   92.7421 H       833        0    0.0000
   5005 C         827.2626  -41.4996   90.9880 C.3     834        0    0.0000
   5006 C         825.9308  -41.6163   90.2386 C.3     834        0    0.0000
   5007 H         827.8389  -40.6501   90.6010 H       834        0    0.0000
   5008 H         827.8704  -42.3967   90.8168 H       834        0    0.0000
   5009 H         825.9932  -42.4078   89.4815 H       834        0    0.0000
   5010 H         825.1326  -41.9067   90.9329 H       834        0    0.0000
   5011 C         825.5254  -40.2753   89.5351 C.3     835        0    0.0000
   5012 C         824.0275  -39.9790   89.6688 C.3     835        0    0.0000
   5013 H         826.1111  -39.4563   89.9707 H       835        0    0.0000
   5014 H         825.8043  -40.3333   88.4758 H       835        0    0.0000
   5015 H         823.4521  -40.6480   89.0170 H       835        0    0.0000
   5016 H         823.6952  -40.1766   90.6955 H       835        0    0.0000
   5017 C         823.6805  -38.4948   89.3023 C.3     836        0    0.0000
   5018 C         822.4662  -38.3949   88.3724 C.3     836        0    0.0000
   5019 H         823.4924  -37.9367   90.2278 H       836        0    0.0000
   5020 H         824.5559  -38.0336   88.8286 H       836        0    0.0000
   5021 H         822.3758  -39.3088   87.7723 H       836        0    0.0000
   5022 H         821.5455  -38.3137   88.9634 H       836        0    0.0000
   5023 C         822.5571  -37.1633   87.4068 C.3     837        0    0.0000
   5024 C         821.1748  -36.6396   87.0016 C.3     837        0    0.0000
   5025 H         823.1305  -36.3687   87.9002 H       837        0    0.0000
   5026 H         823.1254  -37.4545   86.5148 H       837        0    0.0000
   5027 H         820.4121  -37.0156   87.6947 H       837        0    0.0000
   5028 H         821.1519  -35.5450   87.0715 H       837        0    0.0000
   5029 C         820.7839  -37.0611   85.5431 C.3     838        0    0.0000
   5030 C         819.3674  -36.6114   85.1684 C.3     838        0    0.0000
   5031 H         821.5121  -36.6318   84.8438 H       838        0    0.0000
   5032 H         820.8680  -38.1514   85.4557 H       838        0    0.0000
   5033 H         818.8488  -37.4132   84.6285 H       838        0    0.0000
   5034 H         818.7833  -36.4134   86.0757 H       838        0    0.0000
   5035 C         819.3698  -35.3215   84.2775 C.3     839        0    0.0000
   5036 C         817.9524  -34.8550   83.9272 C.3     839        0    0.0000
   5037 H         819.9071  -34.5259   84.8085 H       839        0    0.0000
   5038 H         819.9359  -35.5262   83.3604 H       839        0    0.0000
   5039 H         817.4009  -35.6652   83.4342 H       839        0    0.0000
   5040 H         817.4001  -34.6094   84.8427 H       839        0    0.0000
   5041 C         817.9552  -33.6007   82.9869 C.3     840        0    0.0000
   5042 C         816.6128  -33.4069   82.2730 C.3     840        0    0.0000
   5043 H         818.1956  -32.7120   83.5835 H       840        0    0.0000
   5044 H         818.7603  -33.7129   82.2501 H       840        0    0.0000
   5045 H         816.2695  -34.3602   81.8523 H       840        0    0.0000
   5046 H         815.8479  -33.0857   82.9908 H       840        0    0.0000
   5047 C         816.7004  -32.3483   81.1201 C.3     841        0    0.0000
   5048 C         815.3193  -31.9663   80.5760 C.3     841        0    0.0000
   5049 H         817.2159  -31.4564   81.4974 H       841        0    0.0000
   5050 H         817.3232  -32.7546   80.3136 H       841        0    0.0000
   5051 H         814.8561  -32.8312   80.0852 H       841        0    0.0000
   5052 H         814.6560  -31.6798   81.4014 H       841        0    0.0000
   5053 C         815.3914  -30.7823   79.5511 C.3     842        0    0.0000
   5054 C         814.1397  -30.6993   78.6705 C.3     842        0    0.0000
   5055 H         815.5254  -29.8441   80.1036 H       842        0    0.0000
   5056 H         816.2836  -30.9099   78.9257 H       842        0    0.0000
   5057 H         813.7996  -31.7078   78.4042 H       842        0    0.0000
   5058 H         813.3199  -30.2267   79.2255 H       842        0    0.0000
   5059 C         814.3925  -29.8872   77.3536 C.3     843        0    0.0000
   5060 C         813.1097  -29.2484   76.8099 C.3     843        0    0.0000
   5061 H         815.1426  -29.1123   77.5545 H       843        0    0.0000
   5062 H         814.8263  -30.5584   76.6020 H       843        0    0.0000
   5063 H         812.5021  -30.0035   76.2960 H       843        0    0.0000
   5064 H         812.5009  -28.8641   77.6376 H       843        0    0.0000
   5065 C         813.4064  -28.0750   75.8137 C.3     844        0    0.0000
   5066 C         812.2812  -27.8828   74.7909 C.3     844        0    0.0000
   5067 H         813.5542  -27.1522   76.3882 H       844        0    0.0000
   5068 H         814.3527  -28.2799   75.2978 H       844        0    0.0000
   5069 H         812.7040  -27.7455   73.7879 H       844        0    0.0000
   5070 H         811.6541  -28.7818   74.7481 H       844        0    0.0000
   5071 C         811.3744  -26.6498   75.1300 C.3     845        0    0.0000
   5072 C         810.0522  -26.6705   74.3550 C.3     845        0    0.0000
   5073 H         811.1777  -26.6416   76.2093 H       845        0    0.0000
   5074 H         811.9286  -25.7304   74.9039 H       845        0    0.0000
   5075 H         809.8987  -27.6565   73.8992 H       845        0    0.0000
   5076 H         809.2118  -26.5061   75.0406 H       845        0    0.0000
   5077 C         810.0064  -25.5807   73.2291 C.3     846        0    0.0000
   5078 C         809.2203  -26.0487   71.9994 C.3     846        0    0.0000
   5079 H         809.5561  -24.6680   73.6385 H       846        0    0.0000
   5080 H         811.0341  -25.3241   72.9433 H       846        0    0.0000
   5081 H         809.3470  -27.1295   71.8609 H       846        0    0.0000
   5082 H         808.1478  -25.8739   72.1497 H       846        0    0.0000
   5083 C         809.6732  -25.3150   70.6901 C.3     847        0    0.0000
   5084 C         808.5139  -24.5855   70.0024 C.3     847        0    0.0000
   5085 H         810.4695  -24.6032   70.9410 H       847        0    0.0000
   5086 H         810.1129  -26.0514   70.0062 H       847        0    0.0000
   5087 H         807.9182  -25.2954   69.4153 H       847        0    0.0000
   5088 H         807.8406  -24.1559   70.7545 H       847        0    0.0000
   5089 C         809.0113  -23.4392   69.0558 C.3     848        0    0.0000
   5090 C         807.9988  -23.1178   67.9510 C.3     848        0    0.0000
   5091 H         809.2079  -22.5436   69.6581 H       848        0    0.0000
   5092 H         809.9695  -23.7374   68.6127 H       848        0    0.0000
   5093 H         808.5040  -22.6304   67.1080 H       848        0    0.0000
   5094 H         807.5596  -24.0448   67.5619 H       848        0    0.0000
   5095 C         806.8445  -22.1850   68.4560 C.3     849        0    0.0000
   5096 C         805.6498  -22.1674   67.4960 C.3     849        0    0.0000
   5097 H         806.5242  -22.5246   69.4489 H       849        0    0.0000
   5098 H         807.2402  -21.1697   68.5829 H       849        0    0.0000
   5099 H         805.3657  -23.1931   67.2305 H       849        0    0.0000
   5100 H         804.7790  -21.7163   67.9875 H       849        0    0.0000
   5101 C         805.9564  -21.3713   66.1808 C.3     850        0    0.0000
   5102 C         804.9987  -21.7397   65.0423 C.3     850        0    0.0000
   5103 H         805.8914  -20.2972   66.3943 H       850        0    0.0000
   5104 H         806.9924  -21.5706   65.8801 H       850        0    0.0000
   5105 H         805.1940  -22.7646   64.7032 H       850        0    0.0000
   5106 H         803.9621  -21.7188   65.4011 H       850        0    0.0000
   5107 C         805.1293  -20.7688   63.8184 C.3     851        0    0.0000
   5108 C         803.7647  -20.3615   63.2518 C.3     851        0    0.0000
   5109 H         805.6876  -19.8779   64.1318 H       851        0    0.0000
   5110 H         805.7285  -21.2586   63.0409 H       851        0    0.0000
   5111 H         803.3042  -21.2112   62.7327 H       851        0    0.0000
   5112 H         803.0858  -20.0853   64.0680 H       851        0    0.0000
   5113 C         803.8713  -19.1572   62.2539 C.3     852        0    0.0000
   5114 C         802.8677  -19.2679   61.1007 C.3     852        0    0.0000
   5115 H         803.7073  -18.2241   62.8069 H       852        0    0.0000
   5116 H         804.8942  -19.1142   61.8596 H       852        0    0.0000
   5117 H         803.0233  -20.2072   60.5556 H       852        0    0.0000
   5118 H         801.8442  -19.2979   61.4944 H       852        0    0.0000
   5119 C         802.9866  -18.0731   60.0929 C.3     853        0    0.0000
   5120 C         801.7316  -17.9162   59.2272 C.3     853        0    0.0000
   5121 H         803.1716  -17.1510   60.6578 H       853        0    0.0000
   5122 H         803.8653  -18.2339   59.4559 H       853        0    0.0000
   5123 H         801.5222  -18.8526   58.6953 H       853        0    0.0000
   5124 H         800.8602  -17.7125   59.8616 H       853        0    0.0000
   5125 C         801.8743  -16.7602   58.1780 C.3     854        0    0.0000
   5126 C         800.7224  -16.7480   57.1669 C.3     854        0    0.0000
   5127 H         801.9172  -15.8023   58.7110 H       854        0    0.0000
   5128 H         802.8323  -16.8731   57.6555 H       854        0    0.0000
   5129 H         800.6805  -17.7055   56.6331 H       854        0    0.0000
   5130 H         799.7644  -16.6363   57.6895 H       854        0    0.0000
   5131 C         800.8642  -15.5909   56.1188 C.3     855        0    0.0000
   5132 C         799.6302  -15.4687   55.2180 C.3     855        0    0.0000
   5133 H         801.0344  -14.6483   56.6536 H       855        0    0.0000
   5134 H         801.7581  -15.7733   55.5096 H       855        0    0.0000
   5135 H         799.4443  -16.4198   54.7037 H       855        0    0.0000
   5136 H         798.7407  -15.2596   55.8250 H       855        0    0.0000
   5137 C         799.7875  -14.3365   54.1453 C.3     856        0    0.0000
   5138 C         798.5923  -14.2733   53.1879 C.3     856        0    0.0000
   5139 H         799.9080  -13.3755   54.6605 H       856        0    0.0000
   5140 H         800.7126  -14.5097   53.5813 H       856        0    0.0000
   5141 H         798.4849  -15.2273   52.6569 H       856        0    0.0000
   5142 H         797.6648  -14.1215   53.7537 H       856        0    0.0000
   5143 C         798.7356  -13.1218   52.1339 C.3     857        0    0.0000
   5144 C         797.5175  -13.0264   51.2086 C.3     857        0    0.0000
   5145 H         798.8802  -12.1726   52.6646 H       857        0    0.0000
   5146 H         799.6440  -13.2939   51.5433 H       857        0    0.0000
   5147 H         797.3630  -13.9809   50.6905 H       857        0    0.0000
   5148 H         796.6116  -12.8375   51.7978 H       857        0    0.0000
   5149 C         797.6710  -11.8902   50.1395 C.3     858        0    0.0000
   5150 C         796.4724  -11.8234   49.1867 C.3     858        0    0.0000
   5151 H         797.7934  -10.9311   50.6579 H       858        0    0.0000
   5152 H         798.5938  -12.0613   49.5716 H       858        0    0.0000
   5153 H         796.3619  -12.7759   48.6537 H       858        0    0.0000
   5154 H         795.5471  -11.6721   49.7563 H       858        0    0.0000
   5155 C         796.6129  -10.6692   48.1352 C.3     859        0    0.0000
   5156 C         795.3991  -10.5815   47.2034 C.3     859        0    0.0000
   5157 H         796.7474   -9.7198   48.6681 H       859        0    0.0000
   5158 H         797.5257  -10.8338   47.5494 H       859        0    0.0000
   5159 H         795.2603  -11.5333   46.6759 H       859        0    0.0000
   5160 H         794.4873  -10.4097   47.7886 H       859        0    0.0000
   5161 C         795.5441   -9.4339   46.1453 C.3     860        0    0.0000
   5162 C         794.3421   -9.3628   45.1970 C.3     860        0    0.0000
   5163 H         795.6639   -8.4795   46.6729 H       860        0    0.0000
   5164 H         796.4659   -9.5952   45.5728 H       860        0    0.0000
   5165 H         794.2310  -10.3123   44.6589 H       860        0    0.0000
   5166 H         793.4186   -9.2158   45.7707 H       860        0    0.0000
   5167 C         794.4778   -8.2025   44.1517 C.3     861        0    0.0000
   5168 C         793.2650   -8.1165   43.2186 C.3     861        0    0.0000
   5169 H         794.6063   -7.2551   44.6898 H       861        0    0.0000
   5170 H         795.3924   -8.3590   43.5664 H       861        0    0.0000
   5171 H         793.1361   -9.0641   42.6810 H       861        0    0.0000
   5172 H         792.3505   -7.9595   43.8039 H       861        0    0.0000
   5173 C         793.4009   -6.9566   42.1729 C.3     862        0    0.0000
   5174 C         792.1937   -6.8785   41.2318 C.3     862        0    0.0000
   5175 H         793.5207   -6.0079   42.7106 H       862        0    0.0000
   5176 H         794.3202   -7.1086   41.5937 H       862        0    0.0000
   5177 H         792.0864   -7.8199   40.6788 H       862        0    0.0000
   5178 H         791.2721   -6.7473   41.8123 H       862        0    0.0000
   5179 C         792.3161   -5.7004   40.2049 C.3     863        0    0.0000
   5180 C         791.1025   -5.6137   39.2729 C.3     863        0    0.0000
   5181 H         792.4338   -4.7602   40.7578 H       863        0    0.0000
   5182 H         793.2325   -5.8372   39.6174 H       863        0    0.0000
   5183 H         790.9866   -6.5529   38.7179 H       863        0    0.0000
   5184 H         790.1857   -5.4798   39.8606 H       863        0    0.0000
   5185 C         791.2230   -4.4331   38.2487 C.3     864        0    0.0000
   5186 C         790.0134   -4.3518   37.3110 C.3     864        0    0.0000
   5187 H         791.3325   -3.4932   38.8038 H       864        0    0.0000
   5188 H         792.1430   -4.5635   37.6654 H       864        0    0.0000
   5189 H         789.9190   -5.2821   36.7373 H       864        0    0.0000
   5190 H         789.0909   -4.2471   37.8954 H       864        0    0.0000
   5191 C         790.1169   -3.1494   36.3105 C.3     865        0    0.0000
   5192 C         788.9004   -3.0593   35.3826 C.3     865        0    0.0000
   5193 H         790.2222   -2.2202   36.8841 H       865        0    0.0000
   5194 H         791.0341   -3.2599   35.7186 H       865        0    0.0000
   5195 H         788.7889   -3.9925   34.8168 H       865        0    0.0000
   5196 H         787.9844   -2.9381   35.9741 H       865        0    0.0000
   5197 C         789.0109   -1.8658   34.3722 C.3     866        0    0.0000
   5198 C         787.7921   -1.7729   33.4475 C.3     866        0    0.0000
   5199 H         789.1259   -0.9330   34.9380 H       866        0    0.0000
   5200 H         789.9252   -1.9888   33.7784 H       866        0    0.0000
   5201 H         787.7051   -2.6868   32.8470 H       866        0    0.0000
   5202 H         786.8735   -1.6980   34.0424 H       866        0    0.0000
   5203 C         787.8711   -0.5399   32.4826 C.3     867        0    0.0000
   5204 C         786.6486   -0.4425   31.5633 C.3     867        0    0.0000
   5205 H         787.9640    0.3736   33.0830 H       867        0    0.0000
   5206 H         788.7870   -0.6177   31.8836 H       867        0    0.0000
   5207 H         786.5471   -1.3622   30.9739 H       867        0    0.0000
   5208 H         785.7342   -0.3494   32.1621 H       867        0    0.0000
   5209 C         786.7376    0.7781   30.5837 C.3     868        0    0.0000
   5210 C         785.5157    0.8747   29.6635 C.3     868        0    0.0000
   5211 H         786.8382    1.6979   31.1732 H       868        0    0.0000
   5212 H         787.6525    0.6856   29.9856 H       868        0    0.0000
   5213 H         785.4946    0.0205   28.9755 H       868        0    0.0000
   5214 H         784.5939    0.8249   30.2560 H       868        0    0.0000
   5215 C         785.5067    2.1992   28.8251 C.3     869        0    0.0000
   5216 C         784.2874    2.2936   27.9012 C.3     869        0    0.0000
   5217 H         785.5242    3.0535   29.5132 H       869        0    0.0000
   5218 H         786.4304    2.2508   28.2353 H       869        0    0.0000
   5219 H         784.1012    1.3235   27.4239 H       869        0    0.0000
   5220 H         783.3906    2.5346   28.4854 H       869        0    0.0000
   5221 C         784.4702    3.3791   26.7851 C.3     870        0    0.0000
   5222 C         783.2342    3.5029   25.8872 C.3     870        0    0.0000
   5223 H         784.6870    4.3432   27.2617 H       870        0    0.0000
   5224 H         785.3492    3.1213   26.1816 H       870        0    0.0000
   5225 H         782.8130    4.5129   25.9642 H       870        0    0.0000
   5226 H         783.5163    3.3584   24.8370 H       870        0    0.0000
   5227 C         782.1226    2.4621   26.2597 C.3     871        0    0.0000
   5228 C         780.8827    2.5925   25.3683 C.3     871        0    0.0000
   5229 H         782.5417    1.4518   26.1756 H       871        0    0.0000
   5230 H         781.8458    2.6018   27.3120 H       871        0    0.0000
   5231 H         780.6861    1.6425   24.8561 H       871        0    0.0000
   5232 H         779.9993    2.8083   25.9819 H       871        0    0.0000
   5233 C         781.0398    3.7230   24.2936 C.3     872        0    0.0000
   5234 C         779.8007    3.8519   23.4008 C.3     872        0    0.0000
   5235 H         781.2349    4.6733   24.8059 H       872        0    0.0000
   5236 H         781.9241    3.5080   23.6810 H       872        0    0.0000
   5237 H         779.5161    2.8679   23.0080 H       872        0    0.0000
   5238 H         778.9490    4.2145   23.9895 H       872        0    0.0000
   5239 C         780.0350    4.8281   22.1968 C.3     873        0    0.0000
   5240 C         778.8889    5.8324   22.0318 C.3     873        0    0.0000
   5241 H         780.9818    5.3601   22.3519 H       873        0    0.0000
   5242 H         780.1522    4.2371   21.2800 H       873        0    0.0000
   5243 H         777.9390    5.3003   21.8981 H       873        0    0.0000
   5244 H         778.7857    6.4380   22.9408 H       873        0    0.0000
   5245 C         779.1087    6.7891   20.8096 C.3     874        0    0.0000
   5246 C         777.7988    7.1129   20.0825 C.3     874        0    0.0000
   5247 H         779.5804    7.7137   21.1647 H       874        0    0.0000
   5248 H         779.8178    6.3199   20.1163 H       874        0    0.0000
   5249 H         777.3805    6.2016   19.6375 H       874        0    0.0000
   5250 H         777.0542    7.4852   20.7969 H       874        0    0.0000
   5251 C         777.9948    8.1825   18.9534 C.3     875        0    0.0000
   5252 C         776.6633    8.7679   18.4703 C.3     875        0    0.0000
   5253 H         778.6420    8.9829   19.3331 H       875        0    0.0000
   5254 H         778.5278    7.7177   18.1147 H       875        0    0.0000
   5255 H         775.9304    7.9648   18.3240 H       875        0    0.0000
   5256 H         776.2481    9.4381   19.2332 H       875        0    0.0000
   5257 C         776.8160    9.5633   17.1281 C.3     876        0    0.0000
   5258 C         775.4611    9.9265   16.5107 C.3     876        0    0.0000
   5259 H         777.3978   10.4733   17.3206 H       876        0    0.0000
   5260 H         777.4007    8.9588   16.4234 H       876        0    0.0000
   5261 H         775.1885    9.1919   15.7430 H       876        0    0.0000
   5262 H         774.6763    9.8879   17.2764 H       876        0    0.0000
   5263 C         775.4664   11.3547   15.8643 C.3     877        0    0.0000
   5264 C         774.0740   11.7809   15.3858 C.3     877        0    0.0000
   5265 H         775.8481   12.0741   16.5994 H       877        0    0.0000
   5266 H         776.1710   11.3596   15.0235 H       877        0    0.0000
   5267 H         773.3037   11.1897   15.8964 H       877        0    0.0000
   5268 H         773.8912   12.8303   15.6479 H       877        0    0.0000
   5269 C         773.8995   11.6089   13.8375 C.3     878        0    0.0000
   5270 C         772.4988   12.0110   13.3626 C.3     878        0    0.0000
   5271 H         774.6583   12.2146   13.3267 H       878        0    0.0000
   5272 H         774.1007   10.5633   13.5730 H       878        0    0.0000
   5273 H         772.1802   11.3611   12.5382 H       878        0    0.0000
   5274 H         771.7725   11.8712   14.1727 H       878        0    0.0000
   5275 C         772.4396   13.5021   12.8824 C.3     879        0    0.0000
   5276 C         771.0004   14.0091   12.7380 C.3     879        0    0.0000
   5277 H         772.9883   14.1263   13.5986 H       879        0    0.0000
   5278 H         772.9659   13.5859   11.9235 H       879        0    0.0000
   5279 H         770.3109   13.3392   13.2666 H       879        0    0.0000
   5280 H         770.9008   14.9965   13.2056 H       879        0    0.0000
   5281 C         770.5546   14.1126   11.2387 C.3     880        0    0.0000
   5282 C         769.0878   14.5341   11.0967 C.3     880        0    0.0000
   5283 H         771.2042   14.8325   10.7255 H       880        0    0.0000
   5284 H         770.7155   13.1417   10.7541 H       880        0    0.0000
   5285 H         768.4544   13.6498   10.9546 H       880        0    0.0000
   5286 H         768.7458   15.0220   12.0178 H       880        0    0.0000
   5287 C         768.8651   15.5137    9.8933 C.3     881        0    0.0000
   5288 C         767.4494   16.1010    9.8768 C.3     881        0    0.0000
   5289 H         769.6063   16.3205    9.9521 H       881        0    0.0000
   5290 H         769.0596   14.9747    8.9578 H       881        0    0.0000
   5291 H         766.7086   15.2950    9.8049 H       881        0    0.0000
   5292 H         767.2502   16.6290   10.8175 H       881        0    0.0000
   5293 C         767.2322   17.0947    8.6839 C.3     882        0    0.0000
   5294 C         765.7474   17.3605    8.4124 C.3     882        0    0.0000
   5295 H         767.7477   18.0364    8.9098 H       882        0    0.0000
   5296 H         767.7104   16.6809    7.7875 H       882        0    0.0000
   5297 H         765.1529   16.4767    8.6750 H       882        0    0.0000
   5298 H         765.3898   18.1807    9.0471 H       882        0    0.0000
   5299 C         765.4738   17.7261    6.9127 C.3     883        0    0.0000
   5300 C         764.3779   18.7873    6.7641 C.3     883        0    0.0000
   5301 H         766.4070   18.0833    6.4599 H       883        0    0.0000
   5302 H         765.1903   16.8144    6.3725 H       883        0    0.0000
   5303 H         763.4053   18.3656    7.0465 H       883        0    0.0000
   5304 H         764.5691   19.6237    7.4478 H       883        0    0.0000
   5305 C         764.2825   19.3421    5.3011 C.3     884        0    0.0000
   5306 C         762.9484   20.0474    5.0331 C.3     884        0    0.0000
   5307 H         765.1154   20.0355    5.1309 H       884        0    0.0000
   5308 H         764.4161   18.5105    4.5981 H       884        0    0.0000
   5309 H         762.7795   20.1347    3.9526 H       884        0    0.0000
   5310 H         762.1201   19.4504    5.4343 H       884        0    0.0000
   5311 C         762.8945   21.4787    5.6702 C.3     885        0    0.0000
   5312 C         761.4622   22.0138    5.7763 C.3     885        0    0.0000
   5313 H         763.3565   21.4408    6.6646 H       885        0    0.0000
   5314 H         763.5062   22.1587    5.0644 H       885        0    0.0000
   5315 H         760.7470   21.1824    5.7474 H       885        0    0.0000
   5316 H         761.3196   22.5186    6.7398 H       885        0    0.0000
   5317 C         761.1162   23.0182    4.6236 C.3     886        0    0.0000
   5318 C         759.6674   22.8757    4.1443 C.3     886        0    0.0000
   5319 H         761.2958   24.0403    4.9794 H       886        0    0.0000
   5320 H         761.8071   22.8494    3.7882 H       886        0    0.0000
   5321 H         759.3347   21.8363    4.2561 H       886        0    0.0000
   5322 H         759.0033   23.4877    4.7669 H       886        0    0.0000
   5323 C         759.4923   23.3038    2.6464 C.3     887        0    0.0000
   5324 C         758.2417   24.1632    2.4302 C.3     887        0    0.0000
   5325 H         760.3866   23.8545    2.3292 H       887        0    0.0000
   5326 H         759.4408   22.4015    2.0245 H       887        0    0.0000
   5327 H         758.0762   24.8118    3.2993 H       887        0    0.0000
   5328 H         758.3843   24.8241    1.5664 H       887        0    0.0000
   5329 C         756.9576   23.2951    2.1958 C.3     888        0    0.0000
   5330 C         755.6683   24.0892    2.4329 C.3     888        0    0.0000
   5331 H         756.9764   22.9057    1.1703 H       888        0    0.0000
   5332 H         756.9919   22.4254    2.8636 H       888        0    0.0000
   5333 H         754.8301   23.4027    2.6052 H       888        0    0.0000
   5334 H         755.7649   24.7018    3.3378 H       888        0    0.0000
   5335 C         755.3157   25.0240    1.2249 C.3     889        0    0.0000
   5336 C         754.2277   26.0441    1.5782 C.3     889        0    0.0000
   5337 H         756.2267   25.5426    0.9014 H       889        0    0.0000
   5338 H         754.9898   24.4035    0.3810 H       889        0    0.0000
   5339 H         753.5096   25.6007    2.2791 H       889        0    0.0000
   5340 H         754.6729   26.9078    2.0875 H       889        0    0.0000
   5341 C         753.4525   26.5484    0.3123 C.3     890        0    0.0000
   5342 C         752.5648   27.7596    0.6190 C.3     890        0    0.0000
   5343 H         754.1791   26.8028   -0.4692 H       890        0    0.0000
   5344 H         752.8430   25.7251   -0.0803 H       890        0    0.0000
   5345 H         751.8218   27.4977    1.3824 H       890        0    0.0000
   5346 H         753.1706   28.5741    1.0353 H       890        0    0.0000
   5347 C         751.8171   28.2859   -0.6543 C.3     891        0    0.0000
   5348 C         750.5628   29.0922   -0.2997 C.3     891        0    0.0000
   5349 H         752.5085   28.9042   -1.2401 H       891        0    0.0000
   5350 H         751.5480   27.4299   -1.2855 H       891        0    0.0000
   5351 H         749.7407   28.4138   -0.0398 H       891        0    0.0000
   5352 H         750.7518   29.7118    0.5857 H       891        0    0.0000
   5353 C         750.1002   30.0194   -1.4760 C.3     892        0    0.0000
   5354 C         749.0263   31.0214   -1.0380 C.3     892        0    0.0000
   5355 H         750.9740   30.5528   -1.8703 H       892        0    0.0000
   5356 H         749.7193   29.3923   -2.2917 H       892        0    0.0000
   5357 H         748.0698   30.5058   -0.8872 H       892        0    0.0000
   5358 H         749.2991   31.4676   -0.0736 H       892        0    0.0000
   5359 C         748.8218   32.1691   -2.0860 C.3     893        0    0.0000
   5360 C         747.3940   32.7261   -2.0663 C.3     893        0    0.0000
   5361 H         749.5412   32.9707   -1.8775 H       893        0    0.0000
   5362 H         749.0612   31.7829   -3.0846 H       893        0    0.0000
   5363 H         747.1368   33.1367   -3.0506 H       893        0    0.0000
   5364 H         746.6784   31.9194   -1.8647 H       893        0    0.0000
   5365 C         747.2087   33.8476   -0.9869 C.3     894        0    0.0000
   5366 C         745.7521   33.9767   -0.5275 C.3     894        0    0.0000
   5367 H         747.8551   33.6233   -0.1293 H       894        0    0.0000
   5368 H         747.5576   34.8006   -1.4035 H       894        0    0.0000
   5369 H         745.1920   33.0719   -0.7944 H       894        0    0.0000
   5370 H         745.7086   34.0634    0.5653 H       894        0    0.0000
   5371 C         745.0370   35.2192   -1.1618 C.3     895        0    0.0000
   5372 C         743.7114   34.8457   -1.8344 C.3     895        0    0.0000
   5373 H         744.8633   35.9660   -0.3772 H       895        0    0.0000
   5374 H         745.7125   35.6811   -1.8925 H       895        0    0.0000
   5375 H         743.8699   34.0305   -2.5512 H       895        0    0.0000
   5376 H         743.0015   34.4731   -1.0856 H       895        0    0.0000
   5377 C         743.0633   36.0598   -2.5851 C.3     896        0    0.0000
   5378 C         741.6310   36.3362   -2.1146 C.3     896        0    0.0000
   5379 H         743.6887   36.9473   -2.4280 H       896        0    0.0000
   5380 H         743.0723   35.8548   -3.6628 H       896        0    0.0000
   5381 H         740.9175   35.7781   -2.7335 H       896        0    0.0000
   5382 H         741.4986   35.9824   -1.0846 H       896        0    0.0000
   5383 C         741.2692   37.8602   -2.1759 C.3     897        0    0.0000
   5384 C         739.8660   38.1017   -2.7434 C.3     897        0    0.0000
   5385 H         741.3444   38.2824   -1.1662 H       897        0    0.0000
   5386 H         742.0173   38.3768   -2.7900 H       897        0    0.0000
   5387 H         739.8229   37.7777   -3.7906 H       897        0    0.0000
   5388 H         739.1303   37.4990   -2.1966 H       897        0    0.0000
   5389 C         739.4441   39.6093   -2.6631 C.3     898        0    0.0000
   5390 C         737.9247   39.7925   -2.7462 C.3     898        0    0.0000
   5391 H         739.8235   40.0332   -1.7251 H       898        0    0.0000
   5392 H         739.9341   40.1575   -3.4773 H       898        0    0.0000
   5393 H         737.5154   39.1769   -3.5566 H       898        0    0.0000
   5394 H         737.4528   39.4463   -1.8183 H       898        0    0.0000
   5395 C         737.5190   41.2866   -2.9923 C.3     899        0    0.0000
   5396 C         736.0422   41.4319   -3.3755 C.3     899        0    0.0000
   5397 H         737.7307   41.8647   -2.0842 H       899        0    0.0000
   5398 H         738.1556   41.7000   -3.7844 H       899        0    0.0000
   5399 H         735.8759   41.0413   -4.3871 H       899        0    0.0000
   5400 H         735.4177   40.8339   -2.7003 H       899        0    0.0000
   5401 C         735.5587   42.9222   -3.3235 C.3     900        0    0.0000
   5402 C         734.0319   43.0401   -3.3861 C.3     900        0    0.0000
   5403 H         735.9341   43.3838   -2.4018 H       900        0    0.0000
   5404 H         736.0129   43.4706   -4.1581 H       900        0    0.0000
   5405 H         733.6542   42.5557   -4.2951 H       900        0    0.0000
   5406 H         733.5788   42.5135   -2.5370 H       900        0    0.0000
   5407 C         733.5500   44.5318   -3.3710 C.3     901        0    0.0000
   5408 C         732.0850   44.6733   -3.7983 C.3     901        0    0.0000
   5409 H         733.6883   44.9378   -2.3613 H       901        0    0.0000
   5410 H         734.1947   45.1183   -4.0374 H       901        0    0.0000
   5411 H         731.9645   44.3524   -4.8405 H       901        0    0.0000
   5412 H         731.4508   44.0158   -3.1909 H       901        0    0.0000
   5413 C         731.5652   46.1458   -3.6597 C.3     902        0    0.0000
   5414 C         730.0573   46.2556   -3.9107 C.3     902        0    0.0000
   5415 H         731.8070   46.5130   -2.6546 H       902        0    0.0000
   5416 H         732.1117   46.7817   -4.3673 H       902        0    0.0000
   5417 H         729.8174   45.9019   -4.9211 H       902        0    0.0000
   5418 H         729.5117   45.6085   -3.2127 H       902        0    0.0000
   5419 C         729.5339   47.7247   -3.7521 C.3     903        0    0.0000
   5420 C         728.0724   47.8711   -4.1895 C.3     903        0    0.0000
   5421 H         729.6451   48.0284   -2.7038 H       903        0    0.0000
   5422 H         730.1723   48.3932   -4.3430 H       903        0    0.0000
   5423 H         727.9661   47.5932   -5.2455 H       903        0    0.0000
   5424 H         727.4377   47.1832   -3.6173 H       903        0    0.0000
   5425 C         727.5375   49.3318   -3.9953 C.3     904        0    0.0000
   5426 C         726.0433   49.4506   -4.3151 C.3     904        0    0.0000
   5427 H         727.7266   49.6429   -2.9604 H       904        0    0.0000
   5428 H         728.1146   50.0081   -4.6379 H       904        0    0.0000
   5429 H         725.8563   49.1528   -5.3543 H       904        0    0.0000
   5430 H         725.4675   48.7642   -3.6821 H       904        0    0.0000
   5431 C         725.5040   50.9071   -4.1020 C.3     905        0    0.0000
   5432 C         724.0347   51.0486   -4.5145 C.3     905        0    0.0000
   5433 H         725.6261   51.1784   -3.0461 H       905        0    0.0000
   5434 H         726.1255   51.6023   -4.6798 H       905        0    0.0000
   5435 H         723.9136   50.7831   -5.5720 H       905        0    0.0000
   5436 H         723.4139   50.3492   -3.9409 H       905        0    0.0000
   5437 C         723.4930   52.5030   -4.2935 C.3     906        0    0.0000
   5438 C         722.0049   52.6273   -4.6389 C.3     906        0    0.0000
   5439 H         723.6615   52.7880   -3.2476 H       906        0    0.0000
   5440 H         724.0809   53.1964   -4.9076 H       906        0    0.0000
   5441 H         721.8387   52.3571   -5.6890 H       906        0    0.0000
   5442 H         721.4188   51.9230   -4.0357 H       906        0    0.0000
   5443 C         721.4580   54.0765   -4.3973 C.3     907        0    0.0000
   5444 C         719.9802   54.2110   -4.7807 C.3     907        0    0.0000
   5445 H         721.5975   54.3355   -3.3404 H       907        0    0.0000
   5446 H         722.0632   54.7841   -4.9775 H       907        0    0.0000
   5447 H         719.8419   53.9593   -5.8395 H       907        0    0.0000
   5448 H         719.3761   53.4981   -4.2060 H       907        0    0.0000
   5449 C         719.4304   55.6573   -4.5292 C.3     908        0    0.0000
   5450 C         717.9471   55.7863   -4.8929 C.3     908        0    0.0000
   5451 H         719.5826   55.9149   -3.4737 H       908        0    0.0000
   5452 H         720.0248   56.3686   -5.1160 H       908        0    0.0000
   5453 H         717.7964   55.5397   -5.9512 H       908        0    0.0000
   5454 H         717.3541   55.0672   -4.3144 H       908        0    0.0000
   5455 C         717.3932   57.2284   -4.6263 C.3     909        0    0.0000
   5456 C         715.9112   57.3587   -4.9945 C.3     909        0    0.0000
   5457 H         717.5406   57.4736   -3.5672 H       909        0    0.0000
   5458 H         717.9885   57.9479   -5.2020 H       909        0    0.0000
   5459 H         715.7654   57.1245   -6.0564 H       909        0    0.0000
   5460 H         715.3172   56.6314   -4.4271 H       909        0    0.0000
   5461 C         715.3531   58.7963   -4.7129 C.3     910        0    0.0000
   5462 C         713.8718   58.9273   -5.0836 C.3     910        0    0.0000
   5463 H         715.4971   59.0297   -3.6507 H       910        0    0.0000
   5464 H         715.9482   59.5237   -5.2788 H       910        0    0.0000
   5465 H         713.7291   58.7034   -6.1481 H       910        0    0.0000
   5466 H         713.2779   58.1932   -4.5250 H       910        0    0.0000
   5467 C         713.3101   60.3609   -4.7892 C.3     911        0    0.0000
   5468 C         711.8289   60.4920   -5.1602 C.3     911        0    0.0000
   5469 H         713.4525   60.5847   -3.7247 H       911        0    0.0000
   5470 H         713.9042   61.0949   -5.3476 H       911        0    0.0000
   5471 H         711.6877   60.2765   -6.2266 H       911        0    0.0000
   5472 H         711.2359   59.7523   -4.6081 H       911        0    0.0000
   5473 C         711.2642   61.9221   -4.8547 C.3     912        0    0.0000
   5474 C         709.7815   62.0514   -5.2201 C.3     912        0    0.0000
   5475 H         711.4094   62.1394   -3.7892 H       912        0    0.0000
   5476 H         711.8544   62.6614   -5.4102 H       912        0    0.0000
   5477 H         709.6373   61.8417   -6.2872 H       912        0    0.0000
   5478 H         709.1923   61.3070   -4.6703 H       912        0    0.0000
   5479 C         709.2140   63.4783   -4.9044 C.3     913        0    0.0000
   5480 C         707.7305   63.6068   -5.2676 C.3     913        0    0.0000
   5481 H         709.3597   63.6887   -3.8377 H       913        0    0.0000
   5482 H         709.8021   64.2226   -5.4556 H       913        0    0.0000
   5483 H         707.5861   63.4052   -6.3363 H       913        0    0.0000
   5484 H         707.1437   62.8567   -4.7233 H       913        0    0.0000
   5485 C         707.1599   65.0297   -4.9403 C.3     914        0    0.0000
   5486 C         705.6796   65.1623   -5.3150 C.3     914        0    0.0000
   5487 H         707.2962   65.2277   -3.8698 H       914        0    0.0000
   5488 H         707.7526   65.7806   -5.4774 H       914        0    0.0000
   5489 H         705.5443   64.9714   -6.3868 H       914        0    0.0000
   5490 H         705.0880   64.4068   -4.7833 H       914        0    0.0000
   5491 C         705.1063   66.5819   -4.9783 C.3     915        0    0.0000
   5492 C         703.6212   66.7082   -5.3351 C.3     915        0    0.0000
   5493 H         705.2543   66.7786   -3.9092 H       915        0    0.0000
   5494 H         705.6891   67.3365   -5.5210 H       915        0    0.0000
   5495 H         703.4734   66.5133   -6.4045 H       915        0    0.0000
   5496 H         703.0388   65.9525   -4.7937 H       915        0    0.0000
   5497 C         703.0472   68.1270   -4.9960 C.3     916        0    0.0000
   5498 C         701.5460   68.2309   -5.2867 C.3     916        0    0.0000
   5499 H         703.2414   68.3435   -3.9382 H       916        0    0.0000
   5500 H         703.5958   68.8785   -5.5772 H       916        0    0.0000
   5501 H         701.3531   68.0267   -6.3472 H       916        0    0.0000
   5502 H         700.9986   67.4712   -4.7150 H       916        0    0.0000
   5503 C         700.9684   69.6443   -4.9311 C.3     917        0    0.0000
   5504 C         699.7155   69.9818   -5.7469 C.3     917        0    0.0000
   5505 H         700.7380   69.6726   -3.8589 H       917        0    0.0000
   5506 H         701.7457   70.3983   -5.1064 H       917        0    0.0000
   5507 H         699.9495   69.9678   -6.8186 H       917        0    0.0000
   5508 H         698.9434   69.2198   -5.5830 H       917        0    0.0000
   5509 C         699.1259   71.3864   -5.3766 C.3     918        0    0.0000
   5510 C         697.6132   71.3361   -5.1353 C.3     918        0    0.0000
   5511 H         699.6376   71.7596   -4.4809 H       918        0    0.0000
   5512 H         699.3545   72.0904   -6.1863 H       918        0    0.0000
   5513 H         697.1085   70.8927   -6.0026 H       918        0    0.0000
   5514 H         697.3904   70.6901   -4.2770 H       918        0    0.0000
   5515 C         697.0065   72.7569   -4.8694 C.3     919        0    0.0000
   5516 C         696.6440   72.9670   -3.3950 C.3     919        0    0.0000
   5517 H         697.7301   73.5162   -5.1907 H       919        0    0.0000
   5518 H         696.1161   72.8844   -5.4975 H       919        0    0.0000
   5519 H         695.6207   72.6195   -3.2061 H       919        0    0.0000
   5520 H         697.3036   72.3667   -2.7562 H       919        0    0.0000
   5521 C         696.7548   74.4702   -2.9644 C.3     920        0    0.0000
   5522 C         695.4214   75.2135   -3.1016 C.3     920        0    0.0000
   5523 H         697.1055   74.5157   -1.9260 H       920        0    0.0000
   5524 H         697.5223   74.9582   -3.5779 H       920        0    0.0000
   5525 H         694.7722   74.6927   -3.8164 H       920        0    0.0000
   5526 H         694.8923   75.2175   -2.1406 H       920        0    0.0000
   5527 C         695.6130   76.6943   -3.5791 C.3     921        0    0.0000
   5528 C         694.3156   77.3012   -4.1245 C.3     921        0    0.0000
   5529 H         695.9832   77.2923   -2.7372 H       921        0    0.0000
   5530 H         696.3930   76.7190   -4.3502 H       921        0    0.0000
   5531 H         694.5233   77.8777   -5.0345 H       921        0    0.0000
   5532 H         693.6179   76.5039   -4.4092 H       921        0    0.0000
   5533 C         693.6138   78.2382   -3.0819 C.3     922        0    0.0000
   5534 C         692.2177   78.6742   -3.5401 C.3     922        0    0.0000
   5535 H         693.5472   77.7116   -2.1218 H       922        0    0.0000
   5536 H         694.2469   79.1185   -2.9151 H       922        0    0.0000
   5537 H         692.1504   78.6312   -4.6343 H       922        0    0.0000
   5538 H         691.4608   77.9822   -3.1505 H       922        0    0.0000
   5539 C         691.8644   80.1270   -3.0688 C.3     923        0    0.0000
   5540 C         690.6525   80.7001   -3.8118 C.3     923        0    0.0000
   5541 H         691.6707   80.1111   -1.9891 H       923        0    0.0000
   5542 H         692.7391   80.7711   -3.2226 H       923        0    0.0000
   5543 H         690.9310   80.9615   -4.8402 H       923        0    0.0000
   5544 H         689.8619   79.9429   -3.8822 H       923        0    0.0000
   5545 C         690.0710   81.9737   -3.1065 C.3     924        0    0.0000
   5546 C         688.5583   82.1115   -3.3113 C.3     924        0    0.0000
   5547 H         690.3025   81.9214   -2.0353 H       924        0    0.0000
   5548 H         690.5859   82.8602   -3.4970 H       924        0    0.0000
   5549 H         688.3216   82.1034   -4.3824 H       924        0    0.0000
   5550 H         688.0391   81.2531   -2.8673 H       924        0    0.0000
   5551 C         687.9907   83.4283   -2.6780 C.3     925        0    0.0000
   5552 C         686.7834   83.9710   -3.4508 C.3     925        0    0.0000
   5553 H         687.7112   83.2279   -1.6363 H       925        0    0.0000
   5554 H         688.7889   84.1804   -2.6509 H       925        0    0.0000
   5555 H         687.0480   84.1206   -4.5050 H       925        0    0.0000
   5556 H         685.9654   83.2404   -3.4319 H       925        0    0.0000
   5557 C         686.2628   85.3279   -2.8631 C.3     926        0    0.0000
   5558 C         684.7559   85.5121   -3.0741 C.3     926        0    0.0000
   5559 H         686.4999   85.3637   -1.7926 H       926        0    0.0000
   5560 H         686.8123   86.1517   -3.3352 H       926        0    0.0000
   5561 H         684.5164   85.4568   -4.1432 H       926        0    0.0000
   5562 H         684.2055   84.6987   -2.5853 H       926        0    0.0000
   5563 C         684.2402   86.8811   -2.5108 C.3     927        0    0.0000
   5564 C         682.8511   87.2437   -3.0474 C.3     927        0    0.0000
   5565 H         684.2180   86.8269   -1.4153 H       927        0    0.0000
   5566 H         684.9611   87.6654   -2.7727 H       927        0    0.0000
   5567 H         682.8550   87.2254   -4.1443 H       927        0    0.0000
   5568 H         682.1158   86.4973   -2.7226 H       927        0    0.0000
   5569 C         682.3797   88.6596   -2.5674 C.3     928        0    0.0000
   5570 C         680.8805   88.8812   -2.7961 C.3     928        0    0.0000
   5571 H         682.6179   88.7693   -1.5021 H       928        0    0.0000
   5572 H         682.9586   89.4244   -3.0999 H       928        0    0.0000
   5573 H         680.6499   88.8171   -3.8667 H       928        0    0.0000
   5574 H         680.3035   88.0898   -2.3017 H       928        0    0.0000
   5575 C         680.3963   90.2713   -2.2572 C.3     929        0    0.0000
   5576 C         678.9464   90.5741   -2.6512 C.3     929        0    0.0000
   5577 H         680.4995   90.2826   -1.1650 H       929        0    0.0000
   5578 H         681.0623   91.0523   -2.6446 H       929        0    0.0000
   5579 H         678.8366   90.5328   -3.7420 H       929        0    0.0000
   5580 H         678.2768   89.8096   -2.2380 H       929        0    0.0000
   5581 C         678.4760   91.9827   -2.1490 C.3     930        0    0.0000
   5582 C         676.9863   92.2263   -2.4145 C.3     930        0    0.0000
   5583 H         678.6848   92.0629   -1.0750 H       930        0    0.0000
   5584 H         679.0777   92.7541   -2.6454 H       930        0    0.0000
   5585 H         676.7787   92.1516   -3.4892 H       930        0    0.0000
   5586 H         676.3850   91.4516   -1.9229 H       930        0    0.0000
   5587 C         676.5141   93.6316   -1.9051 C.3     931        0    0.0000
   5588 C         675.0421   93.9040   -2.2335 C.3     931        0    0.0000
   5589 H         676.6743   93.6870   -0.8212 H       931        0    0.0000
   5590 H         677.1495   94.4034   -2.3572 H       931        0    0.0000
   5591 H         674.8812   93.8445   -3.3170 H       931        0    0.0000
   5592 H         674.4064   93.1346   -1.7779 H       931        0    0.0000
   5593 C         674.5715   95.3118   -1.7293 C.3     932        0    0.0000
   5594 C         673.0833   95.5583   -2.0006 C.3     932        0    0.0000
   5595 H         674.7757   95.3887   -0.6542 H       932        0    0.0000
   5596 H         675.1765   96.0838   -2.2209 H       932        0    0.0000
   5597 H         672.8785   95.4777   -3.0753 H       932        0    0.0000
   5598 H         672.4783   94.7884   -1.5060 H       932        0    0.0000
   5599 C         672.6138   96.9681   -1.5011 C.3     933        0    0.0000
   5600 C         671.1315   97.2244   -1.7945 C.3     933        0    0.0000
   5601 H         672.8021   97.0419   -0.4228 H       933        0    0.0000
   5602 H         673.2310   97.7372   -1.9820 H       933        0    0.0000
   5603 H         670.9441   97.1548   -2.8732 H       933        0    0.0000
   5604 H         670.5148   96.4529   -1.3172 H       933        0    0.0000
   5605 C         670.6606   98.6318   -1.2896 C.3     934        0    0.0000
   5606 C         669.1719   98.8772   -1.5588 C.3     934        0    0.0000
   5607 H         670.8661   98.7088   -0.2147 H       934        0    0.0000
   5608 H         671.2643   99.4043   -1.7819 H       934        0    0.0000
   5609 H         668.9666   98.8010   -2.6338 H       934        0    0.0000
   5610 H         668.5684   98.1042   -1.0672 H       934        0    0.0000
   5611 C         668.7006  100.2841   -1.0528 C.3     935        0    0.0000
   5612 C         667.2144  100.5338   -1.3317 C.3     935        0    0.0000
   5613 H         668.8988  100.3573    0.0237 H       935        0    0.0000
   5614 H         669.3096  101.0567   -1.5384 H       935        0    0.0000
   5615 H         667.0173  100.4662   -2.4088 H       935        0    0.0000
   5616 H         666.6059   99.7580   -0.8507 H       935        0    0.0000
   5617 C         666.7412  101.9375   -0.8186 C.3     936        0    0.0000
   5618 C         665.2535  102.1847   -1.0920 C.3     936        0    0.0000
   5619 H         666.9424  102.0068    0.2576 H       936        0    0.0000
   5620 H         667.3467  102.7136   -1.3030 H       936        0    0.0000
   5621 H         665.0524  102.1160   -2.1683 H       936        0    0.0000
   5622 H         664.6481  101.4082   -0.6082 H       936        0    0.0000
   5623 C         664.7801  103.5880   -0.5781 C.3     937        0    0.0000
   5624 C         663.2925  103.8355   -0.8523 C.3     937        0    0.0000
   5625 H         664.9807  103.6564    0.4983 H       937        0    0.0000
   5626 H         665.3860  104.3644   -1.0614 H       937        0    0.0000
   5627 H         663.0925  103.7690   -1.9289 H       937        0    0.0000
   5628 H         662.6870  103.0580   -0.3706 H       937        0    0.0000
   5629 C         662.8185  105.2377   -0.3359 C.3     938        0    0.0000
   5630 C         661.3293  105.4822   -0.6037 C.3     938        0    0.0000
   5631 H         663.0235  105.3062    0.7397 H       938        0    0.0000
   5632 H         663.4208  106.0155   -0.8215 H       938        0    0.0000
   5633 H         661.1248  105.4152   -1.6795 H       938        0    0.0000
   5634 H         660.7272  104.7036   -0.1193 H       938        0    0.0000
   5635 C         660.8548  106.8836   -0.0855 C.3     939        0    0.0000
   5636 C         659.3657  107.1282   -0.3534 C.3     939        0    0.0000
   5637 H         661.0594  106.9507    0.9902 H       939        0    0.0000
   5638 H         661.4570  107.6622   -0.5699 H       939        0    0.0000
   5639 H         659.1618  107.0651   -1.4295 H       939        0    0.0000
   5640 H         658.7638  106.3472    0.1276 H       939        0    0.0000
   5641 C         658.8898  108.5271    0.1699 C.3     940        0    0.0000
   5642 C         657.3997  108.7698   -0.0940 C.3     940        0    0.0000
   5643 H         659.0967  108.5914    1.2454 H       940        0    0.0000
   5644 H         659.4896  109.3082   -0.3135 H       940        0    0.0000
   5645 H         657.1924  108.7039   -1.1693 H       940        0    0.0000
   5646 H         656.7997  107.9897    0.3908 H       940        0    0.0000
   5647 C         656.9243  110.1697    0.4273 C.3     941        0    0.0000
   5648 C         655.4337  110.4115    0.1653 C.3     941        0    0.0000
   5649 H         657.1329  110.2363    1.5023 H       941        0    0.0000
   5650 H         657.5231  110.9500   -0.0586 H       941        0    0.0000
   5651 H         655.2258  110.3490   -0.9100 H       941        0    0.0000
   5652 H         654.8352  109.6290    0.6480 H       941        0    0.0000
   5653 C         654.9570  111.8091    0.6917 C.3     942        0    0.0000
   5654 C         653.4659  112.0500    0.4316 C.3     942        0    0.0000
   5655 H         655.1664  111.8723    1.7667 H       942        0    0.0000
   5656 H         655.5544  112.5918    0.2078 H       942        0    0.0000
   5657 H         653.2573  111.9912   -0.6438 H       942        0    0.0000
   5658 H         652.8687  111.2650    0.9118 H       942        0    0.0000
   5659 C         652.9878  113.4450    0.9634 C.3     943        0    0.0000
   5660 C         651.4967  113.6860    0.7032 C.3     943        0    0.0000
   5661 H         653.1963  113.5039    2.0389 H       943        0    0.0000
   5662 H         653.5851  114.2301    0.4834 H       943        0    0.0000
   5663 H         651.2881  113.6265   -0.3722 H       943        0    0.0000
   5664 H         650.8993  112.9013    1.1839 H       943        0    0.0000
   5665 C         651.0188  115.0814    1.2342 C.3     944        0    0.0000
   5666 C         649.5272  115.3214    0.9759 C.3     944        0    0.0000
   5667 H         651.2288  115.1414    2.3093 H       944        0    0.0000
   5668 H         651.6151  115.8661    0.7524 H       944        0    0.0000
   5669 H         649.3188  115.2690   -0.0999 H       944        0    0.0000
   5670 H         648.9315  114.5323    1.4511 H       944        0    0.0000
   5671 C         649.0469  116.7122    1.5165 C.3     945        0    0.0000
   5672 C         647.5553  116.9522    1.2583 C.3     945        0    0.0000
   5673 H         649.2556  116.7647    2.5923 H       945        0    0.0000
   5674 H         649.6426  117.5013    1.0412 H       945        0    0.0000
   5675 H         647.3467  116.9002    0.1825 H       945        0    0.0000
   5676 H         646.9596  116.1628    1.7332 H       945        0    0.0000
   5677 C         647.0748  118.3427    1.7996 C.3     946        0    0.0000
   5678 C         645.5834  118.5831    1.5403 C.3     946        0    0.0000
   5679 H         647.2827  118.3943    2.8755 H       946        0    0.0000
   5680 H         647.6711  119.1320    1.3253 H       946        0    0.0000
   5681 H         645.3779  118.5439    0.4634 H       946        0    0.0000
   5682 H         644.9879  117.7869    2.0039 H       946        0    0.0000
   5683 C         645.0989  119.9661    2.0972 C.3     947        0    0.0000
   5684 C         643.6075  120.2063    1.8381 C.3     947        0    0.0000
   5685 H         645.3049  120.0054    3.1741 H       947        0    0.0000
   5686 H         645.6943  120.7623    1.6334 H       947        0    0.0000
   5687 H         643.4005  120.1595    0.7618 H       947        0    0.0000
   5688 H         643.0117  119.4143    2.3084 H       947        0    0.0000
   5689 C         643.1254  121.5939    2.3855 C.3     948        0    0.0000
   5690 C         641.6348  121.8356    2.1235 C.3     948        0    0.0000
   5691 H         643.3304  121.6399    3.4623 H       948        0    0.0000
   5692 H         643.7229  122.3858    1.9170 H       948        0    0.0000
   5693 H         641.1088  122.0041    3.0714 H       948        0    0.0000
   5694 H         641.5009  122.7438    1.5231 H       948        0    0.0000
   5695 C         640.9600  120.6329    1.3781 C.3     949        0    0.0000
   5696 C         639.4691  120.8742    1.1168 C.3     949        0    0.0000
   5697 H         641.4856  120.4647    0.4299 H       949        0    0.0000
   5698 H         641.0945  119.7245    1.9783 H       949        0    0.0000
   5699 H         639.2628  120.8234    0.0405 H       949        0    0.0000
   5700 H         638.8718  120.0848    1.5897 H       949        0    0.0000
   5701 C         638.9885  122.2646    1.6584 C.3     950        0    0.0000
   5702 C         637.4962  122.5032    1.4029 C.3     950        0    0.0000
   5703 H         639.1991  122.3172    2.7338 H       950        0    0.0000
   5704 H         639.5827  123.0542    1.1820 H       950        0    0.0000
   5705 H         637.2563  122.2939    0.3530 H       950        0    0.0000
   5706 H         636.8959  121.8119    2.0071 H       950        0    0.0000
   5707 C         637.0638  123.9725    1.7368 C.3     951        0    0.0000
   5708 C         635.5504  124.1000    1.9433 C.3     951        0    0.0000
   5709 H         637.5954  124.3014    2.6384 H       951        0    0.0000
   5710 H         637.3889  124.6308    0.9216 H       951        0    0.0000
   5711 H         635.0258  123.9305    0.9949 H       951        0    0.0000
   5712 H         635.1995  123.3283    2.6397 H       951        0    0.0000
   5713 C         635.1433  125.5071    2.5015 C.3     952        0    0.0000
   5714 C         633.7466  125.9345    2.0367 C.3     952        0    0.0000
   5715 H         635.1823  125.4776    3.5974 H       952        0    0.0000
   5716 H         635.8889  126.2446    2.1794 H       952        0    0.0000
   5717 H         633.5840  125.6217    0.9979 H       952        0    0.0000
   5718 H         632.9797  125.4336    2.6403 H       952        0    0.0000
   5719 C         633.5358  127.4846    2.1366 C.3     953        0    0.0000
   5720 C         632.1190  127.8499    2.5933 C.3     953        0    0.0000
   5721 H         634.2743  127.8977    2.8348 H       953        0    0.0000
   5722 H         633.7427  127.9335    1.1571 H       953        0    0.0000
   5723 H         631.6976  127.0375    3.1981 H       953        0    0.0000
   5724 H         632.1484  128.7385    3.2360 H       953        0    0.0000
   5725 C         631.1595  128.1311    1.3859 C.3     954        0    0.0000
   5726 C         629.7347  128.4648    1.8417 C.3     954        0    0.0000
   5727 H         631.5689  128.9594    0.7944 H       954        0    0.0000
   5728 H         631.1485  127.2513    0.7307 H       954        0    0.0000
   5729 H         629.0142  127.8142    1.3306 H       954        0    0.0000
   5730 H         629.6281  128.2701    2.9160 H       954        0    0.0000
   5731 C         629.3552  129.9593    1.5588 C.3     955        0    0.0000
   5732 C         628.0971  130.3929    2.3194 C.3     955        0    0.0000
   5733 H         630.2023  130.5981    1.8378 H       955        0    0.0000
   5734 H         629.2054  130.0879    0.4797 H       955        0    0.0000
   5735 H         627.2782  129.6896    2.1238 H       955        0    0.0000
   5736 H         628.2833  130.3671    3.4002 H       955        0    0.0000
   5737 C         627.6300  131.8355    1.9214 C.3     956        0    0.0000
   5738 C         626.1689  132.0988    2.3023 C.3     956        0    0.0000
   5739 H         628.2841  132.5669    2.4120 H       956        0    0.0000
   5740 H         627.7664  131.9659    0.8407 H       956        0    0.0000
   5741 H         625.6671  132.6589    1.5035 H       956        0    0.0000
   5742 H         625.6304  131.1487    2.4070 H       956        0    0.0000
   5743 C         626.0397  132.9032    3.6415 C.3     957        0    0.0000
   5744 C         624.5813  133.2207    3.9900 C.3     957        0    0.0000
   5745 H         626.5014  132.3218    4.4492 H       957        0    0.0000
   5746 H         626.6161  133.8324    3.5528 H       957        0    0.0000
   5747 H         623.9540  132.3359    3.8255 H       957        0    0.0000
   5748 H         624.4955  133.4745    5.0538 H       957        0    0.0000
   5749 C         624.0123  134.4085    3.1397 C.3     958        0    0.0000
   5750 C         622.4906  134.5386    3.2689 C.3     958        0    0.0000
   5751 H         624.4979  135.3381    3.4614 H       958        0    0.0000
   5752 H         624.2889  134.2557    2.0892 H       958        0    0.0000
   5753 H         622.0057  133.6045    2.9595 H       958        0    0.0000
   5754 H         622.2150  134.7043    4.3178 H       958        0    0.0000
   5755 C         621.9194  135.7150    2.4045 C.3     959        0    0.0000
   5756 C         620.4019  135.8658    2.5590 C.3     959        0    0.0000
   5757 H         622.4215  136.6453    2.6975 H       959        0    0.0000
   5758 H         622.1744  135.5371    1.3525 H       959        0    0.0000
   5759 H         619.9451  136.0883    1.5868 H       959        0    0.0000
   5760 H         619.9633  134.9214    2.9045 H       959        0    0.0000
   5761 C         620.0175  137.0009    3.5696 C.3     960        0    0.0000
   5762 C         618.5010  137.1251    3.7543 C.3     960        0    0.0000
   5763 H         620.4981  136.7937    4.5337 H       960        0    0.0000
   5764 H         620.4315  137.9506    3.2088 H       960        0    0.0000
   5765 H         618.0173  137.3018    2.7856 H       960        0    0.0000
   5766 H         618.0914  136.1850    4.1442 H       960        0    0.0000
   5767 C         618.1149  138.2884    4.7315 C.3     961        0    0.0000
   5768 C         616.6208  138.6252    4.6720 C.3     961        0    0.0000
   5769 H         618.3951  138.0005    5.7523 H       961        0    0.0000
   5770 H         618.7106  139.1745    4.4794 H       961        0    0.0000
   5771 H         616.3312  138.8705    3.6426 H       961        0    0.0000
   5772 H         616.0262  137.7517    4.9668 H       961        0    0.0000
   5773 C         616.2456  139.8294    5.6030 C.3     962        0    0.0000
   5774 C         614.7826  140.2560    5.4397 C.3     962        0    0.0000
   5775 H         616.4404  139.5451    6.6445 H       962        0    0.0000
   5776 H         616.9106  140.6720    5.3767 H       962        0    0.0000
   5777 H         614.1396  139.3709    5.3578 H       962        0    0.0000
   5778 H         614.4497  140.8061    6.3286 H       962        0    0.0000
   5779 C         614.5642  141.1578    4.1762 C.3     963        0    0.0000
   5780 C         613.1063  141.1518    3.7032 C.3     963        0    0.0000
   5781 H         614.8782  142.1817    4.4139 H       963        0    0.0000
   5782 H         615.2219  140.8052    3.3721 H       963        0    0.0000
   5783 H         613.0400  141.5507    2.6834 H       963        0    0.0000
   5784 H         612.7277  140.1228    3.6643 H       963        0    0.0000
   5785 C         612.1749  141.9978    4.6382 C.3     964        0    0.0000
   5786 C         610.6985  141.8866    4.2419 C.3     964        0    0.0000
   5787 H         612.3129  141.6613    5.6731 H       964        0    0.0000
   5788 H         612.4960  143.0462    4.6023 H       964        0    0.0000
   5789 H         610.5959  141.9503    3.1515 H       964        0    0.0000
   5790 H         610.3020  140.9078    4.5390 H       964        0    0.0000
   5791 C         609.8211  143.0076    4.8984 C.3     965        0    0.0000
   5792 C         608.3221  142.7762    4.6772 C.3     965        0    0.0000
   5793 H         610.0413  143.0456    5.9724 H       965        0    0.0000
   5794 H         610.1174  143.9782    4.4815 H       965        0    0.0000
   5795 H         608.0414  143.0758    3.6599 H       965        0    0.0000
   5796 H         608.0893  141.7079    4.7666 H       965        0    0.0000
   5797 C         607.4408  143.5730    5.6999 C.3     966        0    0.0000
   5798 C         606.1758  144.1474    5.0526 C.3     966        0    0.0000
   5799 H         607.1700  142.9063    6.5280 H       966        0    0.0000
   5800 H         608.0434  144.3821    6.1309 H       966        0    0.0000
   5801 H         606.3932  144.4760    4.0288 H       966        0    0.0000
   5802 H         605.4056  143.3698    4.9772 H       966        0    0.0000
   5803 C         605.5934  145.3589    5.8592 C.3     967        0    0.0000
   5804 C         604.0879  145.5372    5.6334 C.3     967        0    0.0000
   5805 H         605.7981  145.2047    6.9259 H       967        0    0.0000
   5806 H         606.1284  146.2701    5.5643 H       967        0    0.0000
   5807 H         603.6505  144.6031    5.2599 H       967        0    0.0000
   5808 H         603.5888  145.7606    6.5844 H       967        0    0.0000
   5809 C         603.7719  146.6860    4.6147 C.3     968        0    0.0000
   5810 C         602.3409  146.6035    4.0717 C.3     968        0    0.0000
   5811 H         603.9310  147.6517    5.1102 H       968        0    0.0000
   5812 H         604.4914  146.6336    3.7882 H       968        0    0.0000
   5813 H         602.3480  146.6905    2.9782 H       968        0    0.0000
   5814 H         601.9052  145.6246    4.3071 H       968        0    0.0000
   5815 C         601.4161  147.7233    4.6618 C.3     969        0    0.0000
   5816 C         599.9709  147.2468    4.8444 C.3     969        0    0.0000
   5817 H         601.8283  148.0517    5.6240 H       969        0    0.0000
   5818 H         601.4438  148.5931    3.9939 H       969        0    0.0000
   5819 H         599.4194  147.3481    3.9014 H       969        0    0.0000
   5820 H         599.9563  146.1812    5.1049 H       969        0    0.0000
   5821 C         599.2168  148.0499    5.9596 C.3     970        0    0.0000
   5822 C         597.9050  148.6580    5.4511 C.3     970        0    0.0000
   5823 H         599.0179  147.3797    6.8049 H       970        0    0.0000
   5824 H         599.8781  148.8413    6.3338 H       970        0    0.0000
   5825 H         597.8056  149.6905    5.8083 H       970        0    0.0000
   5826 H         597.9113  148.7030    4.3549 H       970        0    0.0000
   5827 C         596.6513  147.8396    5.9160 C.3     971        0    0.0000
   5828 C         595.3626  148.3145    5.2355 C.3     971        0    0.0000
   5829 H         596.8218  146.7778    5.6992 H       971        0    0.0000
   5830 H         596.5558  147.9274    7.0054 H       971        0    0.0000
   5831 H         595.5745  148.6278    4.2058 H       971        0    0.0000
   5832 H         594.6443  147.4877    5.1718 H       971        0    0.0000
   5833 C         594.6926  149.5083    5.9993 C.3     972        0    0.0000
   5834 C         593.7217  150.2944    5.1112 C.3     972        0    0.0000
   5835 H         594.1651  149.1149    6.8771 H       972        0    0.0000
   5836 H         595.4797  150.1730    6.3765 H       972        0    0.0000
   5837 H         594.0947  150.3231    4.0799 H       972        0    0.0000
   5838 H         592.7480  149.7900    5.0802 H       972        0    0.0000
   5839 C         593.5137  151.7644    5.6145 C.3     973        0    0.0000
   5840 C         592.0438  152.1949    5.5584 C.3     973        0    0.0000
   5841 H         593.8896  151.8429    6.6421 H       973        0    0.0000
   5842 H         594.1265  152.4377    5.0026 H       973        0    0.0000
   5843 H         591.3911  151.3199    5.6670 H       973        0    0.0000
   5844 H         591.8156  152.8642    6.3971 H       973        0    0.0000
   5845 C         591.6896  152.9260    4.2177 C.3     974        0    0.0000
   5846 C         590.2988  152.5452    3.6982 C.3     974        0    0.0000
   5847 H         591.7468  154.0095    4.3799 H       974        0    0.0000
   5848 H         592.4517  152.6790    3.4682 H       974        0    0.0000
   5849 H         590.2862  152.5735    2.6016 H       974        0    0.0000
   5850 H         590.0574  151.5155    3.9896 H       974        0    0.0000
   5851 C         589.1799  153.4996    4.2412 C.3     975        0    0.0000
   5852 C         587.9739  152.7283    4.7888 C.3     975        0    0.0000
   5853 H         589.6077  154.1354    5.0262 H       975        0    0.0000
   5854 H         588.8625  154.1688    3.4319 H       975        0    0.0000
   5855 H         587.4877  152.1675    3.9809 H       975        0    0.0000
   5856 H         588.3045  151.9902    5.5300 H       975        0    0.0000
   5857 C         586.9162  153.6744    5.4548 C.3     976        0    0.0000
   5858 C         585.5524  153.6017    4.7592 C.3     976        0    0.0000
   5859 H         586.8140  153.4015    6.5124 H       976        0    0.0000
   5860 H         587.2967  154.7031    5.4301 H       976        0    0.0000
   5861 H         585.6862  153.4024    3.6888 H       976        0    0.0000
   5862 H         584.9675  152.7668    5.1644 H       976        0    0.0000
   5863 C         584.7283  154.9246    4.9276 C.3     977        0    0.0000
   5864 C         583.2164  154.6761    4.8884 C.3     977        0    0.0000
   5865 H         585.0074  155.3966    5.8778 H       977        0    0.0000
   5866 H         585.0153  155.6237    4.1323 H       977        0    0.0000
   5867 H         582.9429  154.1669    3.9560 H       977        0    0.0000
   5868 H         582.9234  154.0096    5.7090 H       977        0    0.0000
   5869 C         582.3928  156.0054    4.9985 C.3     978        0    0.0000
   5870 C         580.9280  155.8167    4.5890 C.3     978        0    0.0000
   5871 H         582.4506  156.3728    6.0306 H       978        0    0.0000
   5872 H         582.8651  156.7674    4.3661 H       978        0    0.0000
   5873 H         580.8406  155.8131    3.4955 H       978        0    0.0000
   5874 H         580.5624  154.8429    4.9376 H       978        0    0.0000
   5875 C         580.0002  156.9408    5.1663 C.3     979        0    0.0000
   5876 C         578.5167  156.6635    4.8992 C.3     979        0    0.0000
   5877 H         580.1784  157.0269    6.2454 H       979        0    0.0000
   5878 H         580.2894  157.9011    4.7216 H       979        0    0.0000
   5879 H         578.3443  155.5830    4.8197 H       979        0    0.0000
   5880 H         577.9100  157.0182    5.7417 H       979        0    0.0000
   5881 C         578.0102  157.3539    3.5860 C.3     980        0    0.0000
   5882 C         576.4873  157.2689    3.4353 C.3     980        0    0.0000
   5883 H         578.3296  158.4034    3.5925 H       980        0    0.0000
   5884 H         578.5004  156.8807    2.7261 H       980        0    0.0000
   5885 H         576.1689  157.7990    2.5291 H       980        0    0.0000
   5886 H         576.1793  156.2231    3.3132 H       980        0    0.0000
   5887 C         575.7335  157.8772    4.6678 C.3     981        0    0.0000
   5888 C         574.2217  157.6333    4.6022 C.3     981        0    0.0000
   5889 H         576.1456  157.4397    5.5856 H       981        0    0.0000
   5890 H         575.9392  158.9539    4.7120 H       981        0    0.0000
   5891 H         574.0045  156.7973    3.9259 H       981        0    0.0000
   5892 H         573.8440  157.3449    5.5910 H       981        0    0.0000
   5893 C         573.4366  158.8981    4.1107 C.3     982        0    0.0000
   5894 C         572.0490  158.5443    3.5642 C.3     982        0    0.0000
   5895 H         573.3434  159.6031    4.9459 H       982        0    0.0000
   5896 H         574.0283  159.4028    3.3368 H       982        0    0.0000
   5897 H         572.0852  158.4619    2.4708 H       982        0    0.0000
   5898 H         571.7339  157.5645    3.9438 H       982        0    0.0000
   5899 C         570.9673  159.6095    3.9551 C.3     983        0    0.0000
   5900 C         569.5598  159.0074    4.0298 C.3     983        0    0.0000
   5901 H         571.2392  160.0513    4.9217 H       983        0    0.0000
   5902 H         570.9899  160.4229    3.2193 H       983        0    0.0000
   5903 H         569.4984  158.1145    3.3954 H       983        0    0.0000
   5904 H         569.3442  158.6811    5.0548 H       983        0    0.0000
   5905 C         568.4542  160.0238    3.5800 C.3     984        0    0.0000
   5906 C         567.1598  159.3227    3.1531 C.3     984        0    0.0000
   5907 H         568.2522  160.7155    4.4071 H       984        0    0.0000
   5908 H         568.8453  160.6281    2.7521 H       984        0    0.0000
   5909 H         567.3102  158.8040    2.1982 H       984        0    0.0000
   5910 H         566.8872  158.5558    3.8887 H       984        0    0.0000
   5911 C         565.9639  160.3247    3.0009 C.3     985        0    0.0000
   5912 C         564.6078  159.6511    3.2386 C.3     985        0    0.0000
   5913 H         566.1027  161.1511    3.7091 H       985        0    0.0000
   5914 H         565.9953  160.7627    1.9956 H       985        0    0.0000
   5915 H         564.5007  158.7792    2.5814 H       985        0    0.0000
   5916 H         564.5484  159.2784    4.2686 H       985        0    0.0000
   5917 C         563.4072  160.6263    2.9840 C.3     986        0    0.0000
   5918 C         562.1556  159.8908    2.4923 C.3     986        0    0.0000
   5919 H         563.1861  161.1651    3.9136 H       986        0    0.0000
   5920 H         563.7138  161.3801    2.2482 H       986        0    0.0000
   5921 H         562.3459  159.4392    1.5108 H       986        0    0.0000
   5922 H         561.9102  159.0682    3.1754 H       986        0    0.0000
   5923 C         560.9141  160.8412    2.3792 C.3     987        0    0.0000
   5924 C         559.5931  160.0663    2.3169 C.3     987        0    0.0000
   5925 H         560.9105  161.5222    3.2393 H       987        0    0.0000
   5926 H         561.0268  161.4651    1.4839 H       987        0    0.0000
   5927 H         559.5894  159.3989    1.4462 H       987        0    0.0000
   5928 H         559.4891  159.4284    3.2033 H       987        0    0.0000
   5929 C         558.3500  161.0173    2.2300 C.3     988        0    0.0000
   5930 C         557.1017  160.2955    1.7106 C.3     988        0    0.0000
   5931 H         558.1555  161.4368    3.2248 H       988        0    0.0000
   5932 H         558.5961  161.8620    1.5746 H       988        0    0.0000
   5933 H         557.2816  159.9144    0.6977 H       988        0    0.0000
   5934 H         556.8813  159.4247    2.3404 H       988        0    0.0000
   5935 C         555.8434  161.2302    1.6826 C.3     989        0    0.0000
   5936 C         554.5633  160.4702    1.3186 C.3     989        0    0.0000
   5937 H         555.7330  161.7039    2.6659 H       989        0    0.0000
   5938 H         556.0192  162.0381    0.9616 H       989        0    0.0000
   5939 H         554.7030  159.9283    0.3750 H       989        0    0.0000
   5940 H         554.3423  159.7167    2.0848 H       989        0    0.0000
   5941 C         553.3267  161.4231    1.1757 C.3     990        0    0.0000
   5942 C         552.0811  160.6866    0.6712 C.3     990        0    0.0000
   5943 H         553.1220  161.8851    2.1495 H       990        0    0.0000
   5944 H         553.5861  162.2381    0.4886 H       990        0    0.0000
   5945 H         552.2495  160.3168   -0.3478 H       990        0    0.0000
   5946 H         551.8847  159.8071    1.2970 H       990        0    0.0000
   5947 C         550.8083  161.6019    0.6726 C.3     991        0    0.0000
   5948 C         549.5522  160.8507    0.2181 C.3     991        0    0.0000
   5949 H         550.6620  162.0024    1.6834 H       991        0    0.0000
   5950 H         550.9906  162.4619    0.0163 H       991        0    0.0000
   5951 H         549.2085  160.1769    1.0127 H       991        0    0.0000
   5952 H         548.7363  161.5601    0.0317 H       991        0    0.0000
   5953 C         549.7997  160.0123   -1.0832 C.3     992        0    0.0000
   5954 C         548.5364  159.2824   -1.5530 C.3     992        0    0.0000
   5955 H         550.1620  160.6828   -1.8723 H       992        0    0.0000
   5956 H         550.6022  159.2894   -0.8909 H       992        0    0.0000
   5957 H         548.2573  159.6223   -2.5580 H       992        0    0.0000
   5958 H         548.7301  158.2051   -1.6272 H       992        0    0.0000
   5959 C         547.3235  159.5123   -0.5869 C.3     993        0    0.0000
   5960 C         546.0021  159.0178   -1.1856 C.3     993        0    0.0000
   5961 H         547.5234  158.9967    0.3606 H       993        0    0.0000
   5962 H         547.2542  160.5824   -0.3548 H       993        0    0.0000
   5963 H         546.0892  158.9398   -2.2764 H       993        0    0.0000
   5964 H         545.7748  158.0106   -0.8149 H       993        0    0.0000
   5965 C         544.8020  159.9658   -0.8411 C.3     994        0    0.0000
   5966 C         543.5995  159.7393   -1.7640 C.3     994        0    0.0000
   5967 H         544.5106  159.8017    0.2037 H       994        0    0.0000
   5968 H         545.1414  161.0065   -0.9138 H       994        0    0.0000
   5969 H         543.1680  160.7026   -2.0628 H       994        0    0.0000
   5970 H         543.9216  159.2389   -2.6856 H       994        0    0.0000
   5971 C         542.4828  158.8748   -1.0834 C.3     995        0    0.0000
   5972 C         541.4425  158.3723   -2.0906 C.3     995        0    0.0000
   5973 H         542.9543  158.0252   -0.5742 H       995        0    0.0000
   5974 H         541.9944  159.4761   -0.3065 H       995        0    0.0000
   5975 H         541.8794  158.3364   -3.0963 H       995        0    0.0000
   5976 H         541.1418  157.3472   -1.8410 H       995        0    0.0000
   5977 C         540.1642  159.2792   -2.1270 C.3     996        0    0.0000
   5978 C         539.2314  158.9218   -3.2894 C.3     996        0    0.0000
   5979 H         539.6320  159.1785   -1.1730 H       996        0    0.0000
   5980 H         540.4769  160.3279   -2.2042 H       996        0    0.0000
   5981 H         538.9893  159.8221   -3.8677 H       996        0    0.0000
   5982 H         539.7352  158.2315   -3.9773 H       996        0    0.0000
   5983 C         537.8967  158.2620   -2.7988 C.3     997        0    0.0000
   5984 C         537.1237  157.5957   -3.9422 C.3     997        0    0.0000
   5985 H         538.1320  157.5228   -2.0230 H       997        0    0.0000
   5986 H         537.2759  159.0312   -2.3231 H       997        0    0.0000
   5987 H         537.2713  158.1569   -4.8733 H       997        0    0.0000
   5988 H         537.5108  156.5845   -4.1191 H       997        0    0.0000
   5989 C         535.5870  157.5036   -3.6460 C.3     998        0    0.0000
   5990 C         534.7510  157.4381   -4.9290 C.3     998        0    0.0000
   5991 H         535.3984  156.6167   -3.0285 H       998        0    0.0000
   5992 H         535.2896  158.3735   -3.0473 H       998        0    0.0000
   5993 H         534.8846  158.3576   -5.5123 H       998        0    0.0000
   5994 H         535.0966  156.6108   -5.5612 H       998        0    0.0000
   5995 C         533.2237  157.2444   -4.6336 C.3     999        0    0.0000
   5996 C         532.5151  156.4499   -5.7362 C.3     999        0    0.0000
   5997 H         533.1121  156.7323   -3.6699 H       999        0    0.0000
   5998 H         532.7573  158.2311   -4.5220 H       999        0    0.0000
   5999 H         532.7356  156.8889   -6.7171 H       999        0    0.0000
   6000 H         532.8928  155.4202   -5.7598 H       999        0    0.0000
   6001 C         530.9606  156.4135   -5.5368 C.3    1000        0    0.0000
   6002 C         530.2208  155.9983   -6.8132 C.3    1000        0    0.0000
   6003 H         530.7249  155.7175   -4.7221 H      1000        0    0.0000
   6004 H         530.6225  157.4052   -5.2117 H      1000        0    0.0000
   6005 H         530.4778  156.6782   -7.6350 H      1000        0    0.0000
   6006 H         530.5390  154.9952   -7.1231 H      1000        0    0.0000
   6007 C         528.6645  155.9990   -6.6248 C.3    1001        0    0.0000
   6008 C         527.9536  155.1219   -7.6613 C.3    1001        0    0.0000
   6009 H         528.4308  155.6486   -5.6118 H      1001        0    0.0000
   6010 H         528.3005  157.0317   -6.6928 H      1001        0    0.0000
   6011 H         528.2461  155.4246   -8.6744 H      1001        0    0.0000
   6012 H         528.2618  154.0757   -7.5437 H      1001        0    0.0000
   6013 C         526.3928  155.2055   -7.5400 C.3    1002        0    0.0000
   6014 C         525.6812  154.4369   -8.6589 C.3    1002        0    0.0000
   6015 H         526.0926  154.8097   -6.5619 H      1002        0    0.0000
   6016 H         526.0928  156.2605   -7.5586 H      1002        0    0.0000
   6017 H         525.9620  154.8493   -9.6360 H      1002        0    0.0000
   6018 H         526.0007  153.3874   -8.6564 H      1002        0    0.0000
   6019 C         524.1209  154.4905   -8.5173 C.3    1003        0    0.0000
   6020 C         523.4142  153.5821   -9.5294 C.3    1003        0    0.0000
   6021 H         523.8485  154.1987   -7.4955 H      1003        0    0.0000
   6022 H         523.7895  155.5282   -8.6475 H      1003        0    0.0000
   6023 H         523.7325  153.8351  -10.5483 H      1003        0    0.0000
   6024 H         523.7003  152.5366   -9.3604 H      1003        0    0.0000
   6025 C         521.8533  153.6989   -9.4440 C.3    1004        0    0.0000
   6026 C         521.1475  152.8218  -10.4840 C.3    1004        0    0.0000
   6027 H         521.5323  153.4166   -8.4337 H      1004        0    0.0000
   6028 H         521.5692  154.7495   -9.5828 H      1004        0    0.0000
   6029 H         521.4242  153.1419  -11.4962 H      1004        0    0.0000
   6030 H         521.4756  151.7799  -10.3823 H      1004        0    0.0000
   6031 C         519.5868  152.8759  -10.3459 C.3    1005        0    0.0000
   6032 C         518.8827  151.9555  -11.3490 C.3    1005        0    0.0000
   6033 H         519.3126  152.5955   -9.3214 H      1005        0    0.0000
   6034 H         519.2549  153.9118  -10.4887 H      1005        0    0.0000
   6035 H         519.1964  152.2028  -12.3708 H      1005        0    0.0000
   6036 H         519.1757  150.9131  -11.1730 H      1005        0    0.0000
   6037 C         517.3214  152.0634  -11.2598 C.3    1006        0    0.0000
   6038 C         516.6176  151.1603  -12.2786 C.3    1006        0    0.0000
   6039 H         517.0062  151.7998  -10.2426 H      1006        0    0.0000
   6040 H         517.0295  153.1089  -11.4191 H      1006        0    0.0000
   6041 H         516.7945  151.5314  -13.2957 H      1006        0    0.0000
   6042 H         517.0362  150.1471  -12.2356 H      1006        0    0.0000
   6043 C         515.0715  151.0790  -12.0323 C.3    1007        0    0.0000
   6044 C         514.3656  150.1880  -13.0604 C.3    1007        0    0.0000
   6045 H         514.8943  150.6972  -11.0191 H      1007        0    0.0000
   6046 H         514.6545  152.0932  -12.0641 H      1007        0    0.0000
   6047 H         514.7338  150.4131  -14.0690 H      1007        0    0.0000
   6048 H         514.5991  149.1336  -12.8678 H      1007        0    0.0000
   6049 C         512.8090  150.3732  -13.0378 C.3    1008        0    0.0000
   6050 C         512.1033  149.4846  -14.0680 C.3    1008        0    0.0000
   6051 H         512.4406  150.1460  -12.0298 H      1008        0    0.0000
   6052 H         512.5757  151.4281  -13.2282 H      1008        0    0.0000
   6053 H         511.0181  149.5141  -13.9097 H      1008        0    0.0000
   6054 H         512.2844  149.8660  -15.0806 H      1008        0    0.0000
   6055 C         512.5843  147.9944  -13.9960 C.3    1009        0    0.0000
   6056 C         511.8764  147.1052  -15.0242 C.3    1009        0    0.0000
   6057 H         513.6692  147.9648  -14.1566 H      1009        0    0.0000
   6058 H         512.4053  147.6137  -12.9828 H      1009        0    0.0000
   6059 H         512.6140  146.6378  -15.6883 H      1009        0    0.0000
   6060 H         511.3485  146.2890  -14.5156 H      1009        0    0.0000
   6061 C         510.8485  147.9066  -15.8951 C.3    1010        0    0.0000
   6062 C         509.7814  146.9987  -16.5166 C.3    1010        0    0.0000
   6063 H         510.3731  148.6706  -15.2675 H      1010        0    0.0000
   6064 H         511.3935  148.4407  -16.6833 H      1010        0    0.0000
   6065 H         510.0597  146.7415  -17.5461 H      1010        0    0.0000
   6066 H         509.7210  146.0545  -15.9613 H      1010        0    0.0000
   6067 C         508.3646  147.6694  -16.5287 C.3    1011        0    0.0000
   6068 C         507.3290  146.8256  -17.2801 C.3    1011        0    0.0000
   6069 H         508.0400  147.8288  -15.4930 H      1011        0    0.0000
   6070 H         508.4469  148.6617  -16.9893 H      1011        0    0.0000
   6071 H         506.3151  147.1373  -17.0000 H      1011        0    0.0000
   6072 H         507.4220  146.9905  -18.3607 H      1011        0    0.0000
   6073 C         507.4856  145.2935  -16.9874 C.3    1012        0    0.0000
   6074 C         506.5309  144.4406  -17.8301 C.3    1012        0    0.0000
   6075 H         508.5244  145.0005  -17.1835 H      1012        0    0.0000
   6076 H         507.3047  145.1172  -15.9198 H      1012        0    0.0000
   6077 H         506.9260  144.3273  -18.8472 H      1012        0    0.0000
   6078 H         506.4556  143.4311  -17.4071 H      1012        0    0.0000
   6079 C         505.0942  145.0624  -17.9124 C.3    1013        0    0.0000
   6080 C         504.2458  144.4205  -19.0156 C.3    1013        0    0.0000
   6081 H         504.6006  144.9420  -16.9401 H      1013        0    0.0000
   6082 H         505.1855  146.1415  -18.0879 H      1013        0    0.0000
   6083 H         504.2827  145.0346  -19.9239 H      1013        0    0.0000
   6084 H         504.6559  143.4386  -19.2822 H      1013        0    0.0000
   6085 C         502.7486  144.2430  -18.5862 C.3    1014        0    0.0000
   6086 C         501.9458  143.4243  -19.6033 C.3    1014        0    0.0000
   6087 H         502.7179  143.7565  -17.6035 H      1014        0    0.0000
   6088 H         502.2967  145.2348  -18.4610 H      1014        0    0.0000
   6089 H         501.7751  142.4109  -19.2196 H      1014        0    0.0000
   6090 H         500.9570  143.8754  -19.7527 H      1014        0    0.0000
   6091 C         502.6703  143.3243  -20.9899 C.3    1015        0    0.0000
   6092 C         501.9088  142.4366  -21.9804 C.3    1015        0    0.0000
   6093 H         502.7860  144.3344  -21.4020 H      1015        0    0.0000
   6094 H         503.6821  142.9304  -20.8326 H      1015        0    0.0000
   6095 H         501.7438  142.9775  -22.9204 H      1015        0    0.0000
   6096 H         502.5063  141.5504  -22.2275 H      1015        0    0.0000
   6097 C         500.5227  141.9700  -21.4159 C.3    1016        0    0.0000
   6098 C         499.6006  141.4292  -22.5141 C.3    1016        0    0.0000
   6099 H         500.6926  141.1991  -20.6539 H      1016        0    0.0000
   6100 H         500.0453  142.8163  -20.9067 H      1016        0    0.0000
   6101 H         499.4790  142.1786  -23.3060 H      1016        0    0.0000
   6102 H         500.0517  140.5459  -22.9829 H      1016        0    0.0000
   6103 C         498.1849  141.0416  -21.9636 C.3    1017        0    0.0000
   6104 C         497.3035  140.3901  -23.0349 C.3    1017        0    0.0000
   6105 H         498.3106  140.3591  -21.1139 H      1017        0    0.0000
   6106 H         497.6979  141.9440  -21.5736 H      1017        0    0.0000
   6107 H         497.0333  141.1286  -23.7999 H      1017        0    0.0000
   6108 H         497.8595  139.5951  -23.5471 H      1017        0    0.0000
   6109 C         495.9898  139.7814  -22.4340 C.3    1018        0    0.0000
   6110 C         495.1036  139.1390  -23.5067 C.3    1018        0    0.0000
   6111 H         496.2600  139.0375  -21.6743 H      1018        0    0.0000
   6112 H         495.4374  140.5749  -21.9154 H      1018        0    0.0000
   6113 H         494.2865  138.5797  -23.0343 H      1018        0    0.0000
   6114 H         494.6372  139.9164  -24.1245 H      1018        0    0.0000
   6115 C         495.9078  138.1681  -24.4385 C.3    1019        0    0.0000
   6116 C         495.0129  137.4905  -25.4821 C.3    1019        0    0.0000
   6117 H         496.7040  138.7348  -24.9367 H      1019        0    0.0000
   6118 H         496.4017  137.4104  -23.8175 H      1019        0    0.0000
   6119 H         495.4044  137.6751  -26.4901 H      1019        0    0.0000
   6120 H         495.0206  136.4033  -25.3353 H      1019        0    0.0000
   6121 C         493.5316  137.9990  -25.4144 C.3    1020        0    0.0000
   6122 C         492.5519  137.0236  -26.0762 C.3    1020        0    0.0000
   6123 H         493.2578  138.1517  -24.3631 H      1020        0    0.0000
   6124 H         493.4720  138.9803  -25.9013 H      1020        0    0.0000
   6125 H         492.7521  136.9621  -27.1531 H      1020        0    0.0000
   6126 H         492.6947  136.0142  -25.6710 H      1020        0    0.0000
   6127 C         491.0575  137.4468  -25.8635 C.3    1021        0    0.0000
   6128 C         490.0797  136.4985  -26.5660 C.3    1021        0    0.0000
   6129 H         490.8474  137.4738  -24.7871 H      1021        0    0.0000
   6130 H         490.9231  138.4697  -26.2365 H      1021        0    0.0000
   6131 H         489.3511  136.1076  -25.8450 H      1021        0    0.0000
   6132 H         489.5081  137.0438  -27.3272 H      1021        0    0.0000
   6133 C         490.8102  135.2922  -27.2507 C.3    1022        0    0.0000
   6134 C         489.8363  134.3649  -27.9859 C.3    1022        0    0.0000
   6135 H         491.5585  135.6833  -27.9511 H      1022        0    0.0000
   6136 H         491.3590  134.7303  -26.4847 H      1022        0    0.0000
   6137 H         490.0768  134.3391  -29.0560 H      1022        0    0.0000
   6138 H         489.9417  133.3380  -27.6145 H      1022        0    0.0000
   6139 C         488.3441  134.8137  -27.8140 C.3    1023        0    0.0000
   6140 C         487.3864  133.9911  -28.6829 C.3    1023        0    0.0000
   6141 H         488.0665  134.7209  -26.7567 H      1023        0    0.0000
   6142 H         488.2634  135.8777  -28.0687 H      1023        0    0.0000
   6143 H         487.4839  134.2876  -29.7346 H      1023        0    0.0000
   6144 H         487.6497  132.9274  -28.6298 H      1023        0    0.0000
   6145 C         485.8908  134.1638  -28.2459 C.3    1024        0    0.0000
   6146 C         484.9498  133.2287  -29.0133 C.3    1024        0    0.0000
   6147 H         485.8132  133.9740  -27.1682 H      1024        0    0.0000
   6148 H         485.5946  135.2082  -28.4041 H      1024        0    0.0000
   6149 H         484.9637  132.2285  -28.5629 H      1024        0    0.0000
   6150 H         483.9172  133.5922  -28.9415 H      1024        0    0.0000
   6151 C         485.3381  133.1065  -30.5272 C.3    1025        0    0.0000
   6152 C         484.4785  132.0749  -31.2659 C.3    1025        0    0.0000
   6153 H         485.2334  134.0910  -30.9997 H      1025        0    0.0000
   6154 H         486.3983  132.8336  -30.5993 H      1025        0    0.0000
   6155 H         484.5609  132.2235  -32.3497 H      1025        0    0.0000
   6156 H         484.8447  131.0619  -31.0581 H      1025        0    0.0000
   6157 C         482.9672  132.1594  -30.8579 C.3    1026        0    0.0000
   6158 C         482.1498  130.9867  -31.4107 C.3    1026        0    0.0000
   6159 H         482.8973  132.1837  -29.7633 H      1026        0    0.0000
   6160 H         482.5555  133.1092  -31.2210 H      1026        0    0.0000
   6161 H         482.8144  130.1515  -31.6646 H      1026        0    0.0000
   6162 H         481.4573  130.6165  -30.6446 H      1026        0    0.0000
   6163 C         481.3280  131.3838  -32.6853 C.3    1027        0    0.0000
   6164 C         480.4439  130.2369  -33.1870 C.3    1027        0    0.0000
   6165 H         480.7105  132.2593  -32.4492 H      1027        0    0.0000
   6166 H         482.0255  131.6936  -33.4734 H      1027        0    0.0000
   6167 H         479.8066  130.5852  -34.0093 H      1027        0    0.0000
   6168 H         481.0678  129.4304  -33.5918 H      1027        0    0.0000
   6169 C         479.5321  129.6505  -32.0546 C.3    1028        0    0.0000
   6170 C         478.6826  128.4726  -32.5445 C.3    1028        0    0.0000
   6171 H         480.1669  129.3341  -31.2178 H      1028        0    0.0000
   6172 H         478.8836  130.4492  -31.6737 H      1028        0    0.0000
   6173 H         478.9434  127.5638  -31.9882 H      1028        0    0.0000
   6174 H         477.6208  128.6678  -32.3492 H      1028        0    0.0000
   6175 C         478.8727  128.1995  -34.0764 C.3    1029        0    0.0000
   6176 C         477.7434  127.3421  -34.6581 C.3    1029        0    0.0000
   6177 H         478.9250  129.1605  -34.6031 H      1029        0    0.0000
   6178 H         479.8391  127.7033  -34.2298 H      1029        0    0.0000
   6179 H         476.8770  127.9719  -34.8954 H      1029        0    0.0000
   6180 H         478.0668  126.8832  -35.6007 H      1029        0    0.0000
   6181 C         477.2902  126.2093  -33.6739 C.3    1030        0    0.0000
   6182 C         476.0797  125.4314  -34.2016 C.3    1030        0    0.0000
   6183 H         478.1329  125.5267  -33.5083 H      1030        0    0.0000
   6184 H         477.0536  126.6593  -32.7017 H      1030        0    0.0000
   6185 H         476.2722  124.3528  -34.1459 H      1030        0    0.0000
   6186 H         475.2028  125.6278  -33.5721 H      1030        0    0.0000
   6187 C         475.7321  125.8067  -35.6834 C.3    1031        0    0.0000
   6188 C         474.5641  124.9806  -36.2332 C.3    1031        0    0.0000
   6189 H         475.4915  126.8760  -35.7302 H      1031        0    0.0000
   6190 H         476.6240  125.6570  -36.3045 H      1031        0    0.0000
   6191 H         474.8048  123.9113  -36.1865 H      1031        0    0.0000
   6192 H         473.6723  125.1303  -35.6121 H      1031        0    0.0000
   6193 C         474.2166  125.3560  -37.7151 C.3    1032        0    0.0000
   6194 C         472.9672  124.6267  -38.2213 C.3    1032        0    0.0000
   6195 H         474.0708  126.4414  -37.7800 H      1032        0    0.0000
   6196 H         475.0768  125.1150  -38.3519 H      1032        0    0.0000
   6197 H         472.0637  125.1302  -37.8556 H      1032        0    0.0000
   6198 H         472.9275  124.6648  -39.3170 H      1032        0    0.0000
   6199 C         472.9294  123.1271  -37.7661 C.3    1033        0    0.0000
   6200 C         471.5316  122.5135  -37.9034 C.3    1033        0    0.0000
   6201 H         473.6507  122.5575  -38.3651 H      1033        0    0.0000
   6202 H         473.2666  123.0652  -36.7240 H      1033        0    0.0000
   6203 H         471.3769  121.7529  -37.1282 H      1033        0    0.0000
   6204 H         470.7658  123.2833  -37.7467 H      1033        0    0.0000
   6205 C         471.3068  121.8560  -39.3086 C.3    1034        0    0.0000
   6206 C         469.9271  121.1995  -39.4287 C.3    1034        0    0.0000
   6207 H         471.4262  122.6249  -40.0820 H      1034        0    0.0000
   6208 H         472.0939  121.1114  -39.4806 H      1034        0    0.0000
   6209 H         469.7899  120.4631  -38.6273 H      1034        0    0.0000
   6210 H         469.1397  121.9530  -39.3025 H      1034        0    0.0000
   6211 C         469.7268  120.4861  -40.8102 C.3    1035        0    0.0000
   6212 C         468.2523  120.1848  -41.1000 C.3    1035        0    0.0000
   6213 H         470.1431  121.1228  -41.6006 H      1035        0    0.0000
   6214 H         470.3089  119.5561  -40.8155 H      1035        0    0.0000
   6215 H         467.6106  120.7551  -40.4169 H      1035        0    0.0000
   6216 H         467.9953  120.5072  -42.1166 H      1035        0    0.0000
   6217 C         467.9174  118.6604  -40.9534 C.3    1036        0    0.0000
   6218 C         466.4642  118.3465  -41.3259 C.3    1036        0    0.0000
   6219 H         468.6014  118.0853  -41.5897 H      1036        0    0.0000
   6220 H         468.1156  118.3527  -39.9192 H      1036        0    0.0000
   6221 H         466.0359  117.6382  -40.6058 H      1036        0    0.0000
   6222 H         465.8564  119.2581  -41.2707 H      1036        0    0.0000
   6223 C         466.3376  117.7411  -42.7663 C.3    1037        0    0.0000
   6224 C         465.0671  116.9004  -42.9334 C.3    1037        0    0.0000
   6225 H         466.3453  118.5603  -43.4961 H      1037        0    0.0000
   6226 H         467.2240  117.1282  -42.9715 H      1037        0    0.0000
   6227 H         465.2143  116.1481  -43.7183 H      1037        0    0.0000
   6228 H         464.8544  116.3520  -42.0074 H      1037        0    0.0000
   6229 C         463.8194  117.7757  -43.3002 C.3    1038        0    0.0000
   6230 C         462.5018  117.0143  -43.1179 C.3    1038        0    0.0000
   6231 H         463.8230  118.6765  -42.6741 H      1038        0    0.0000
   6232 H         463.9178  118.1139  -44.3392 H      1038        0    0.0000
   6233 H         462.6664  116.1189  -42.5058 H      1038        0    0.0000
   6234 H         461.7791  117.6374  -42.5767 H      1038        0    0.0000
   6235 C         461.8712  116.5819  -44.4865 C.3    1039        0    0.0000
   6236 C         461.5853  115.0774  -44.5448 C.3    1039        0    0.0000
   6237 H         460.9442  117.1474  -44.6431 H      1039        0    0.0000
   6238 H         462.5544  116.8667  -45.2963 H      1039        0    0.0000
   6239 H         462.4063  114.5579  -45.0543 H      1039        0    0.0000
   6240 H         461.5333  114.6647  -43.5296 H      1039        0    0.0000
   6241 C         460.2441  114.7559  -45.2901 C.3    1040        0    0.0000
   6242 C         459.7162  113.3559  -44.9582 C.3    1040        0    0.0000
   6243 H         459.4984  115.5133  -45.0185 H      1040        0    0.0000
   6244 H         460.4089  114.8494  -46.3707 H      1040        0    0.0000
   6245 H         460.3319  112.5946  -45.4532 H      1040        0    0.0000
   6246 H         459.7932  113.1708  -43.8796 H      1040        0    0.0000
   6247 C         458.2241  113.1637  -45.3986 C.3    1041        0    0.0000
   6248 C         458.0616  112.0357  -46.4234 C.3    1041        0    0.0000
   6249 H         457.6171  112.9541  -44.5091 H      1041        0    0.0000
   6250 H         457.8544  114.1081  -45.8168 H      1041        0    0.0000
   6251 H         458.7818  112.1637  -47.2410 H      1041        0    0.0000
   6252 H         458.2839  111.0682  -45.9564 H      1041        0    0.0000
   6253 C         456.6157  111.9850  -47.0269 C.3    1042        0    0.0000
   6254 C         456.2584  110.5943  -47.5629 C.3    1042        0    0.0000
   6255 H         455.8987  112.2855  -46.2528 H      1042        0    0.0000
   6256 H         456.5416  112.7283  -47.8304 H      1042        0    0.0000
   6257 H         456.8109  110.3949  -48.4894 H      1042        0    0.0000
   6258 H         456.5622  109.8243  -46.8430 H      1042        0    0.0000
   6259 C         454.7241  110.4432  -47.8470 C.3    1043        0    0.0000
   6260 C         454.4153  109.2397  -48.7442 C.3    1043        0    0.0000
   6261 H         454.1954  110.3451  -46.8907 H      1043        0    0.0000
   6262 H         454.3588  111.3654  -48.3157 H      1043        0    0.0000
   6263 H         454.9455  109.3369  -49.6997 H      1043        0    0.0000
   6264 H         454.7789  108.3173  -48.2746 H      1043        0    0.0000
   6265 C         452.8813  109.0902  -49.0305 C.3    1044        0    0.0000
   6266 C         452.5412  107.7481  -49.6879 C.3    1044        0    0.0000
   6267 H         452.3333  109.1960  -48.0860 H      1044        0    0.0000
   6268 H         452.5597  109.9172  -49.6756 H      1044        0    0.0000
   6269 H         453.3974  107.3872  -50.2711 H      1044        0    0.0000
   6270 H         452.3430  106.9918  -48.9183 H      1044        0    0.0000
   6271 C         451.2932  107.8480  -50.6313 C.3    1045        0    0.0000
   6272 C         450.8304  106.4745  -51.1296 C.3    1045        0    0.0000
   6273 H         450.4793  108.3455  -50.0895 H      1045        0    0.0000
   6274 H         451.5445  108.4921  -51.4831 H      1045        0    0.0000
   6275 H         451.4393  106.1604  -51.9863 H      1045        0    0.0000
   6276 H         450.9768  105.7210  -50.3458 H      1045        0    0.0000
   6277 C         449.3215  106.4743  -51.5550 C.3    1046        0    0.0000
   6278 C         448.8517  105.0945  -52.0285 C.3    1046        0    0.0000
   6279 H         448.7142  106.8069  -50.7040 H      1046        0    0.0000
   6280 H         449.1788  107.2144  -52.3522 H      1046        0    0.0000
   6281 H         449.7146  104.4828  -52.3197 H      1046        0    0.0000
   6282 H         448.3528  104.5648  -51.2075 H      1046        0    0.0000
   6283 C         447.8652  105.1874  -53.2433 C.3    1047        0    0.0000
   6284 C         447.4120  103.8067  -53.7305 C.3    1047        0    0.0000
   6285 H         446.9949  105.7861  -52.9471 H      1047        0    0.0000
   6286 H         448.3586  105.7308  -54.0587 H      1047        0    0.0000
   6287 H         447.3660  103.7909  -54.8264 H      1047        0    0.0000
   6288 H         448.1438  103.0447  -53.4349 H      1047        0    0.0000
   6289 C         446.0077  103.4068  -53.1600 C.3    1048        0    0.0000
   6290 C         445.5474  102.0331  -53.6599 C.3    1048        0    0.0000
   6291 H         446.0569  103.4111  -52.0640 H      1048        0    0.0000
   6292 H         445.2783  104.1749  -53.4456 H      1048        0    0.0000
   6293 H         446.3631  101.3057  -53.5655 H      1048        0    0.0000
   6294 H         444.7223  101.6637  -53.0384 H      1048        0    0.0000
   6295 C         445.0758  102.0722  -55.1545 C.3    1049        0    0.0000
   6296 C         444.3600  100.7828  -55.5716 C.3    1049        0    0.0000
   6297 H         444.4106  102.9334  -55.2930 H      1049        0    0.0000
   6298 H         445.9490  102.2422  -55.7964 H      1049        0    0.0000
   6299 H         443.3208  100.7989  -55.2203 H      1049        0    0.0000
   6300 H         444.3216  100.7108  -56.6656 H      1049        0    0.0000
   6301 C         445.0649   99.5021  -55.0055 C.3    1050        0    0.0000
   6302 C         444.3008   98.2187  -55.3489 C.3    1050        0    0.0000
   6303 H         446.0842   99.4523  -55.4083 H      1050        0    0.0000
   6304 H         445.1608   99.6031  -53.9173 H      1050        0    0.0000
   6305 H         444.9753   97.4946  -55.8225 H      1050        0    0.0000
   6306 H         443.9261   97.7472  -54.4319 H      1050        0    0.0000
   6307 C         443.0916   98.4864  -56.3100 C.3    1051        0    0.0000
   6308 C         442.2046   97.2489  -56.4860 C.3    1051        0    0.0000
   6309 H         442.5000   99.3195  -55.9105 H      1051        0    0.0000
   6310 H         443.4788   98.8131  -57.2830 H      1051        0    0.0000
   6311 H         442.7682   96.4496  -56.9828 H      1051        0    0.0000
   6312 H         441.9033   96.8595  -55.5056 H      1051        0    0.0000
   6313 C         440.9165   97.5558  -57.3253 C.3    1052        0    0.0000
   6314 C         440.4384   96.3369  -58.1220 C.3    1052        0    0.0000
   6315 H         440.1247   97.8955  -56.6462 H      1052        0    0.0000
   6316 H         441.1280   98.3903  -58.0052 H      1052        0    0.0000
   6317 H         440.8382   96.3745  -59.1429 H      1052        0    0.0000
   6318 H         440.8227   95.4156  -57.6669 H      1052        0    0.0000
   6319 C         438.8748   96.2506  -58.1946 C.3    1053        0    0.0000
   6320 C         438.3938   94.9296  -58.8049 C.3    1053        0    0.0000
   6321 H         438.4669   96.3683  -57.1830 H      1053        0    0.0000
   6322 H         438.5010   97.0961  -58.7853 H      1053        0    0.0000
   6323 H         439.1857   94.1735  -58.7373 H      1053        0    0.0000
   6324 H         437.5389   94.5420  -58.2369 H      1053        0    0.0000
   6325 C         437.9727   95.0875  -60.3066 C.3    1054        0    0.0000
   6326 C         437.5158   93.7613  -60.9244 C.3    1054        0    0.0000
   6327 H         437.1678   95.8300  -60.3720 H      1054        0    0.0000
   6328 H         438.8217   95.4927  -60.8712 H      1054        0    0.0000
   6329 H         437.4929   93.8440  -62.0181 H      1054        0    0.0000
   6330 H         438.2333   92.9672  -60.6834 H      1054        0    0.0000
   6331 C         436.0957   93.3292  -60.4204 C.3    1055        0    0.0000
   6332 C         435.6733   91.9641  -60.9745 C.3    1055        0    0.0000
   6333 H         436.1021   93.3044  -59.3236 H      1055        0    0.0000
   6334 H         435.3679   94.0958  -60.7139 H      1055        0    0.0000
   6335 H         436.2571   91.7254  -61.8721 H      1055        0    0.0000
   6336 H         435.8882   91.1774  -60.2406 H      1055        0    0.0000
   6337 C         434.1487   91.9154  -61.3356 C.3    1056        0    0.0000
   6338 C         433.7341   90.5624  -61.9243 C.3    1056        0    0.0000
   6339 H         433.5642   92.1273  -60.4317 H      1056        0    0.0000
   6340 H         433.9283   92.7193  -62.0488 H      1056        0    0.0000
   6341 H         433.7549   89.7907  -61.1448 H      1056        0    0.0000
   6342 H         432.7013   90.6122  -62.2908 H      1056        0    0.0000
   6343 C         434.6672   90.1160  -63.1022 C.3    1057        0    0.0000
   6344 C         434.2911   88.7348  -63.6498 C.3    1057        0    0.0000
   6345 H         434.6110   90.8655  -63.9014 H      1057        0    0.0000
   6346 H         435.7055   90.1104  -62.7481 H      1057        0    0.0000
   6347 H         434.8093   88.5528  -64.5995 H      1057        0    0.0000
   6348 H         434.6216   87.9522  -62.9556 H      1057        0    0.0000
   6349 C         432.7475   88.5871  -63.8800 C.3    1058        0    0.0000
   6350 C         432.3471   87.1491  -64.2275 C.3    1058        0    0.0000
   6351 H         432.2220   88.9156  -62.9747 H      1058        0    0.0000
   6352 H         432.4434   89.2673  -64.6852 H      1058        0    0.0000
   6353 H         433.1401   86.6691  -64.8141 H      1058        0    0.0000
   6354 H         432.2323   86.5584  -63.3102 H      1058        0    0.0000
   6355 C         431.0081   87.0852  -65.0403 C.3    1059        0    0.0000
   6356 C         430.1676   85.8555  -64.6794 C.3    1059        0    0.0000
   6357 H         430.4352   88.0013  -64.8506 H      1059        0    0.0000
   6358 H         431.2448   87.0779  -66.1115 H      1059        0    0.0000
   6359 H         430.7556   84.9412  -64.8276 H      1059        0    0.0000
   6360 H         429.8940   85.8854  -63.6175 H      1059        0    0.0000
   6361 C         428.8583   85.7585  -65.5361 C.3    1060        0    0.0000
   6362 C         428.6406   84.3530  -66.1072 C.3    1060        0    0.0000
   6363 H         428.0044   86.0468  -64.9106 H      1060        0    0.0000
   6364 H         428.9138   86.4911  -66.3508 H      1060        0    0.0000
   6365 H         429.4677   84.0869  -66.7771 H      1060        0    0.0000
   6366 H         428.6412   83.6134  -65.2969 H      1060        0    0.0000
   6367 C         427.2921   84.2352  -66.8978 C.3    1061        0    0.0000
   6368 C         426.8115   82.7846  -67.0137 C.3    1061        0    0.0000
   6369 H         426.5319   84.8442  -66.3929 H      1061        0    0.0000
   6370 H         427.4291   84.6671  -67.8969 H      1061        0    0.0000
   6371 H         427.6464   82.1335  -67.3009 H      1061        0    0.0000
   6372 H         426.4543   82.4277  -66.0397 H      1061        0    0.0000
   6373 C         425.6597   82.6224  -68.0646 C.3    1062        0    0.0000
   6374 C         425.3418   81.1517  -68.3557 C.3    1062        0    0.0000
   6375 H         424.7644   83.1338  -67.6898 H      1062        0    0.0000
   6376 H         425.9508   83.1347  -68.9901 H      1062        0    0.0000
   6377 H         426.1770   80.6855  -68.8929 H      1062        0    0.0000
   6378 H         425.2242   80.5990  -67.4154 H      1062        0    0.0000
   6379 C         424.0364   80.9833  -69.2073 C.3    1063        0    0.0000
   6380 C         423.6367   79.5130  -69.3732 C.3    1063        0    0.0000
   6381 H         423.2248   81.5416  -68.7245 H      1063        0    0.0000
   6382 H         424.1938   81.4436  -70.1906 H      1063        0    0.0000
   6383 H         424.4492   78.9543  -69.8540 H      1063        0    0.0000
   6384 H         423.4771   79.0533  -68.3899 H      1063        0    0.0000
   6385 C         422.3330   79.3445  -70.2273 C.3    1064        0    0.0000
   6386 C         422.0344   77.8757  -70.5478 C.3    1064        0    0.0000
   6387 H         421.4921   79.7887  -69.6804 H      1064        0    0.0000
   6388 H         422.4424   79.9175  -71.1564 H      1064        0    0.0000
   6389 H         422.8247   77.4618  -71.1862 H      1064        0    0.0000
   6390 H         422.0318   77.2824  -69.6250 H      1064        0    0.0000
   6391 C         420.6547   77.6937  -71.2694 C.3    1065        0    0.0000
   6392 C         420.3204   76.2192  -71.5200 C.3    1065        0    0.0000
   6393 H         419.8716   78.1583  -70.6574 H      1065        0    0.0000
   6394 H         420.6779   78.2410  -72.2199 H      1065        0    0.0000
   6395 H         421.2032   75.6933  -71.9040 H      1065        0    0.0000
   6396 H         420.0476   75.7297  -70.5768 H      1065        0    0.0000
   6397 C         419.1433   76.0419  -72.5401 C.3    1066        0    0.0000
   6398 C         418.8199   74.5671  -72.8033 C.3    1066        0    0.0000
   6399 H         418.2569   76.5576  -72.1503 H      1066        0    0.0000
   6400 H         419.4109   76.5418  -73.4792 H      1066        0    0.0000
   6401 H         418.3389   74.1244  -71.9224 H      1066        0    0.0000
   6402 H         418.1040   74.4807  -73.6300 H      1066        0    0.0000
   6403 C         420.0994   73.7317  -73.1537 C.3    1067        0    0.0000
   6404 C         419.8004   72.2332  -73.2714 C.3    1067        0    0.0000
   6405 H         420.5196   74.1066  -74.0952 H      1067        0    0.0000
   6406 H         420.8574   73.9044  -72.3796 H      1067        0    0.0000
   6407 H         420.2490   71.8309  -74.1882 H      1067        0    0.0000
   6408 H         420.2566   71.6916  -72.4335 H      1067        0    0.0000
   6409 C         418.2616   71.9339  -73.2884 C.3    1068        0    0.0000
   6410 C         417.9376   70.5953  -73.9607 C.3    1068        0    0.0000
   6411 H         417.8895   71.9364  -72.2564 H      1068        0    0.0000
   6412 H         417.7483   72.7510  -73.8104 H      1068        0    0.0000
   6413 H         417.9698   70.7047  -75.0518 H      1068        0    0.0000
   6414 H         418.6964   69.8482  -73.6964 H      1068        0    0.0000
   6415 C         416.5267   70.0498  -73.5491 C.3    1069        0    0.0000
   6416 C         415.6764   69.6631  -74.7641 C.3    1069        0    0.0000
   6417 H         416.6612   69.1814  -72.8923 H      1069        0    0.0000
   6418 H         416.0105   70.8157  -72.9570 H      1069        0    0.0000
   6419 H         414.6120   69.8037  -74.5384 H      1069        0    0.0000
   6420 H         415.9085   70.3213  -75.6105 H      1069        0    0.0000
   6421 C         415.9079   68.1759  -75.2022 C.3    1070        0    0.0000
   6422 C         414.9140   67.7260  -76.2788 C.3    1070        0    0.0000
   6423 H         416.9355   68.0721  -75.5720 H      1070        0    0.0000
   6424 H         415.8241   67.5301  -74.3194 H      1070        0    0.0000
   6425 H         414.3460   68.5880  -76.6500 H      1070        0    0.0000
   6426 H         415.4536   67.3102  -77.1387 H      1070        0    0.0000
   6427 C         413.9073   66.6493  -75.7452 C.3    1071        0    0.0000
   6428 C         412.9628   66.1436  -76.8412 C.3    1071        0    0.0000
   6429 H         414.4763   65.8117  -75.3231 H      1071        0    0.0000
   6430 H         413.3285   67.0841  -74.9209 H      1071        0    0.0000
   6431 H         412.5003   66.9923  -77.3602 H      1071        0    0.0000
   6432 H         413.5282   65.5830  -77.5959 H      1071        0    0.0000
   6433 C         411.8302   65.2221  -76.2707 C.3    1072        0    0.0000
   6434 C         411.3397   64.1989  -77.3011 C.3    1072        0    0.0000
   6435 H         412.2091   64.7065  -75.3796 H      1072        0    0.0000
   6436 H         410.9953   65.8519  -75.9392 H      1072        0    0.0000
   6437 H         410.6389   64.6740  -77.9987 H      1072        0    0.0000
   6438 H         412.1832   63.8351  -77.9009 H      1072        0    0.0000
   6439 C         410.6310   62.9724  -76.6296 C.3    1073        0    0.0000
   6440 C         409.7754   62.1800  -77.6240 C.3    1073        0    0.0000
   6441 H         411.3951   62.3208  -76.1880 H      1073        0    0.0000
   6442 H         410.0083   63.3335  -75.8017 H      1073        0    0.0000
   6443 H         408.8504   61.8433  -77.1396 H      1073        0    0.0000
   6444 H         409.4766   62.8243  -78.4601 H      1073        0    0.0000
   6445 C         410.5310   60.9304  -78.1940 C.3    1074        0    0.0000
   6446 C         410.0532   60.5545  -79.6010 C.3    1074        0    0.0000
   6447 H         411.6071   61.1432  -78.2066 H      1074        0    0.0000
   6448 H         410.3848   60.0860  -77.5091 H      1074        0    0.0000
   6449 H         409.6100   61.4287  -80.0937 H      1074        0    0.0000
   6450 H         410.9059   60.2440  -80.2174 H      1074        0    0.0000
   6451 C         408.9966   59.3966  -79.5800 C.3    1075        0    0.0000
   6452 C         408.0297   59.4711  -80.7668 C.3    1075        0    0.0000
   6453 H         409.5253   58.4354  -79.5853 H      1075        0    0.0000
   6454 H         408.4386   59.4441  -78.6366 H      1075        0    0.0000
   6455 H         407.5411   60.4530  -80.7930 H      1075        0    0.0000
   6456 H         408.5821   59.3689  -81.7091 H      1075        0    0.0000
   6457 C         406.9263   58.3592  -80.7048 C.3    1076        0    0.0000
   6458 C         406.3751   58.0099  -82.0916 C.3    1076        0    0.0000
   6459 H         407.3516   57.4649  -80.2329 H      1076        0    0.0000
   6460 H         406.1138   58.7033  -80.0529 H      1076        0    0.0000
   6461 H         406.0823   58.9249  -82.6214 H      1076        0    0.0000
   6462 H         407.1550   57.5314  -82.6968 H      1076        0    0.0000
   6463 C         405.1364   57.0522  -82.0147 C.3    1077        0    0.0000
   6464 C         405.2663   55.8570  -82.9653 C.3    1077        0    0.0000
   6465 H         405.0249   56.7006  -80.9815 H      1077        0    0.0000
   6466 H         404.2314   57.6250  -82.2520 H      1077        0    0.0000
   6467 H         405.2982   56.2052  -84.0052 H      1077        0    0.0000
   6468 H         406.2107   55.3303  -82.7804 H      1077        0    0.0000
   6469 C         404.0823   54.8417  -82.8085 C.3    1078        0    0.0000
   6470 C         403.9778   53.8827  -83.9994 C.3    1078        0    0.0000
   6471 H         404.2235   54.2745  -81.8801 H      1078        0    0.0000
   6472 H         403.1471   55.4039  -82.6950 H      1078        0    0.0000
   6473 H         403.8727   54.4511  -84.9319 H      1078        0    0.0000
   6474 H         404.8996   53.2948  -84.0910 H      1078        0    0.0000
   6475 C         402.7632   52.9006  -83.8667 C.3    1079        0    0.0000
   6476 C         402.6693   51.9298  -85.0489 C.3    1079        0    0.0000
   6477 H         402.8614   52.3416  -82.9278 H      1079        0    0.0000
   6478 H         401.8401   53.4884  -83.7883 H      1079        0    0.0000
   6479 H         402.5797   52.4889  -85.9886 H      1079        0    0.0000
   6480 H         403.5888   51.3360  -85.1221 H      1079        0    0.0000
   6481 C         401.4475   50.9557  -84.9222 C.3    1080        0    0.0000
   6482 C         401.3958   49.9370  -86.0661 C.3    1080        0    0.0000
   6483 H         401.5083   50.4360  -83.9580 H      1080        0    0.0000
   6484 H         400.5239   51.5475  -84.9034 H      1080        0    0.0000
   6485 H         401.3363   50.4568  -87.0303 H      1080        0    0.0000
   6486 H         402.3188   49.3444  -86.0840 H      1080        0    0.0000
   6487 C         400.1730   48.9640  -85.9403 C.3    1081        0    0.0000
   6488 C         400.1399   47.9242  -87.0658 C.3    1081        0    0.0000
   6489 H         400.2192   48.4622  -84.9658 H      1081        0    0.0000
   6490 H         399.2487   49.5550  -85.9468 H      1081        0    0.0000
   6491 H         400.0904   48.4260  -88.0401 H      1081        0    0.0000
   6492 H         401.0656   47.3354  -87.0613 H      1081        0    0.0000
   6493 C         398.9197   46.9484  -86.9374 C.3    1082        0    0.0000
   6494 C         398.8931   45.9013  -88.0563 C.3    1082        0    0.0000
   6495 H         398.9645   46.4530  -85.9596 H      1082        0    0.0000
   6496 H         397.9937   47.5365  -86.9505 H      1082        0    0.0000
   6497 H         398.8399   46.3966  -89.0337 H      1082        0    0.0000
   6498 H         399.8227   45.3188  -88.0485 H      1082        0    0.0000
   6499 C         397.6795   44.9182  -87.9212 C.3    1083        0    0.0000
   6500 C         397.6606   43.8628  -89.0324 C.3    1083        0    0.0000
   6501 H         397.7273   44.4303  -86.9398 H      1083        0    0.0000
   6502 H         396.7496   45.4999  -87.9390 H      1083        0    0.0000
   6503 H         397.5995   44.3503  -90.0133 H      1083        0    0.0000
   6504 H         398.5962   43.2899  -89.0230 H      1083        0    0.0000
   6505 C         396.4576   42.8682  -88.8866 C.3    1084        0    0.0000
   6506 C         396.4449   41.8062  -89.9916 C.3    1084        0    0.0000
   6507 H         396.5143   42.3865  -87.9026 H      1084        0    0.0000
   6508 H         395.5218   43.4404  -88.9039 H      1084        0    0.0000
   6509 H         396.3687   42.2872  -90.9747 H      1084        0    0.0000
   6510 H         397.3886   41.2469  -89.9868 H      1084        0    0.0000
   6511 C         395.2576   40.7953  -89.8304 C.3    1085        0    0.0000
   6512 C         395.2426   39.7356  -90.9375 C.3    1085        0    0.0000
   6513 H         395.3353   40.3124  -88.8484 H      1085        0    0.0000
   6514 H         394.3140   41.3549  -89.8324 H      1085        0    0.0000
   6515 H         395.1418   40.2174  -91.9180 H      1085        0    0.0000
   6516 H         396.1950   39.1914  -90.9503 H      1085        0    0.0000
   6517 C         394.0745   38.7056  -90.7582 C.3    1086        0    0.0000
   6518 C         394.0569   37.6484  -91.8677 C.3    1086        0    0.0000
   6519 H         394.1770   38.2216  -89.7790 H      1086        0    0.0000
   6520 H         393.1222   39.2501  -90.7423 H      1086        0    0.0000
   6521 H         393.9284   38.1306  -92.8447 H      1086        0    0.0000
   6522 H         395.0186   37.1214  -91.9005 H      1086        0    0.0000
   6523 C         392.9112   36.5971  -91.6685 C.3    1087        0    0.0000
   6524 C         392.8934   35.5400  -92.7781 C.3    1087        0    0.0000
   6525 H         393.0398   36.1149  -90.6915 H      1087        0    0.0000
   6526 H         391.9496   37.1241  -91.6356 H      1087        0    0.0000
   6527 H         392.7333   36.0194  -93.7518 H      1087        0    0.0000
   6528 H         393.8658   35.0347  -92.8318 H      1087        0    0.0000
   6529 C         391.7761   34.4633  -92.5551 C.3    1088        0    0.0000
   6530 C         391.7476   33.4156  -93.6734 C.3    1088        0    0.0000
   6531 H         391.9433   33.9755  -91.5868 H      1088        0    0.0000
   6532 H         390.8051   34.9697  -92.4893 H      1088        0    0.0000
   6533 H         391.5440   33.8992  -94.6368 H      1088        0    0.0000
   6534 H         392.7296   32.9348  -93.7635 H      1088        0    0.0000
   6535 C         390.6646   32.3099  -93.4242 C.3    1089        0    0.0000
   6536 C         390.6177   31.2773  -94.5557 C.3    1089        0    0.0000
   6537 H         390.8796   31.8130  -92.4700 H      1089        0    0.0000
   6538 H         389.6855   32.7924  -93.3144 H      1089        0    0.0000
   6539 H         390.3370   31.7641  -95.4979 H      1089        0    0.0000
   6540 H         391.6133   30.8428  -94.7099 H      1089        0    0.0000
   6541 C         389.6014   30.1203  -94.2624 C.3    1090        0    0.0000
   6542 C         389.4758   29.1455  -95.4384 C.3    1090        0    0.0000
   6543 H         389.9264   29.5839  -93.3623 H      1090        0    0.0000
   6544 H         388.6228   30.5593  -94.0315 H      1090        0    0.0000
   6545 H         389.0899   29.6693  -96.3217 H      1090        0    0.0000
   6546 H         390.4643   28.7550  -95.7105 H      1090        0    0.0000
   6547 C         388.5285   27.9398  -95.1121 C.3    1091        0    0.0000
   6548 C         388.3333   27.0120  -96.3163 C.3    1091        0    0.0000
   6549 H         388.9488   27.3781  -94.2687 H      1091        0    0.0000
   6550 H         387.5597   28.3316  -94.7782 H      1091        0    0.0000
   6551 H         387.8621   27.5605  -97.1413 H      1091        0    0.0000
   6552 H         389.3064   26.6640  -96.6847 H      1091        0    0.0000
   6553 C         387.4494   25.7650  -95.9685 C.3    1092        0    0.0000
   6554 C         387.3717   24.7663  -97.1284 C.3    1092        0    0.0000
   6555 H         387.8630   25.2758  -95.0779 H      1092        0    0.0000
   6556 H         386.4428   26.1089  -95.7001 H      1092        0    0.0000
   6557 H         386.9266   25.2461  -98.0088 H      1092        0    0.0000
   6558 H         388.3806   24.4484  -97.4193 H      1092        0    0.0000
   6559 C         386.5274   23.4967  -96.7638 C.3    1093        0    0.0000
   6560 C         386.4459   22.5002  -97.9253 C.3    1093        0    0.0000
   6561 H         386.9745   23.0150  -95.8855 H      1093        0    0.0000
   6562 H         385.5196   23.8149  -96.4697 H      1093        0    0.0000
   6563 H         385.9289   22.9577  -98.7779 H      1093        0    0.0000
   6564 H         387.4546   22.2414  -98.2705 H      1093        0    0.0000
   6565 C         385.6949   21.1831  -97.5266 C.3    1094        0    0.0000
   6566 C         385.1013   20.4623  -98.7419 C.3    1094        0    0.0000
   6567 H         386.3954   20.5216  -97.0020 H      1094        0    0.0000
   6568 H         384.9008   21.4315  -96.8116 H      1094        0    0.0000
   6569 H         384.3756   21.1118  -99.2471 H      1094        0    0.0000
   6570 H         385.8903   20.2437  -99.4721 H      1094        0    0.0000
   6571 C         384.3911   19.1212  -98.3488 C.3    1095        0    0.0000
   6572 C         384.8037   17.9575  -99.2568 C.3    1095        0    0.0000
   6573 H         384.6314   18.8867  -97.3043 H      1095        0    0.0000
   6574 H         383.3051   19.2689  -98.3966 H      1095        0    0.0000
   6575 H         384.5965   18.2066 -100.3050 H      1095        0    0.0000
   6576 H         385.8847   17.7865  -99.1815 H      1095        0    0.0000
   6577 C         384.0555   16.6281  -98.8960 C.3    1096        0    0.0000
   6578 C         384.4423   15.4730  -99.8261 C.3    1096        0    0.0000
   6579 H         384.2831   16.3655  -97.8554 H      1096        0    0.0000
   6580 H         382.9742   16.8060  -98.9466 H      1096        0    0.0000
   6581 H         383.9164   15.5692 -100.7841 H      1096        0    0.0000
   6582 H         385.5154   15.5137 -100.0503 H      1096        0    0.0000
   6583 C         384.1086   14.0728  -99.2050 C.3    1097        0    0.0000
   6584 C         382.8024   13.4897  -99.7552 C.3    1097        0    0.0000
   6585 H         384.9413   13.3882  -99.4085 H      1097        0    0.0000
   6586 H         384.0447   14.1758  -98.1147 H      1097        0    0.0000
   6587 H         382.0420   14.2767  -99.8320 H      1097        0    0.0000
   6588 H         382.9605   13.1044 -100.7702 H      1097        0    0.0000
   6589 C         382.2433   12.3329  -98.8570 C.3    1098        0    0.0000
   6590 C         381.8879   11.0846  -99.6721 C.3    1098        0    0.0000
   6591 H         382.9919   12.0838  -98.0948 H      1098        0    0.0000
   6592 H         381.3578   12.6973  -98.3216 H      1098        0    0.0000
   6593 H         381.0283   11.2916 -100.3217 H      1098        0    0.0000
   6594 H         382.7228   10.8151 -100.3308 H      1098        0    0.0000
   6595 C         381.5474    9.8563  -98.7596 C.3    1099        0    0.0000
   6596 C         381.5218    8.5396  -99.5437 C.3    1099        0    0.0000
   6597 H         382.2883    9.7991  -97.9526 H      1099        0    0.0000
   6598 H         380.5746   10.0290  -98.2826 H      1099        0    0.0000
   6599 H         380.7576    8.5846 -100.3296 H      1099        0    0.0000
   6600 H         382.4834    8.3833 -100.0480 H      1099        0    0.0000
   6601 C         381.2276    7.3054  -98.6229 C.3    1100        0    0.0000
   6602 C         380.9396    6.0345  -99.4296 C.3    1100        0    0.0000
   6603 H         382.0881    7.1444  -97.9618 H      1100        0    0.0000
   6604 H         380.3736    7.5422  -97.9763 H      1100        0    0.0000
   6605 H         379.9930    6.1408  -99.9738 H      1100        0    0.0000
   6606 H         381.7214    5.8826 -100.1841 H      1100        0    0.0000
   6607 C         380.8597    4.7595  -98.5210 C.3    1101        0    0.0000
   6608 C         380.6558    3.4775  -99.3358 C.3    1101        0    0.0000
   6609 H         381.7817    4.6875  -97.9309 H      1101        0    0.0000
   6610 H         380.0372    4.8857  -97.8061 H      1101        0    0.0000
   6611 H         379.7570    3.5666  -99.9586 H      1101        0    0.0000
   6612 H         381.5000    3.3285 -100.0203 H      1101        0    0.0000
   6613 C         380.5149    2.2101  -98.4240 C.3    1102        0    0.0000
   6614 C         380.3541    0.9226  -99.2397 C.3    1102        0    0.0000
   6615 H         381.3993    2.1387  -97.7787 H      1102        0    0.0000
   6616 H         379.6514    2.3457  -97.7610 H      1102        0    0.0000
   6617 H         379.4301    0.9640  -99.8297 H      1102        0    0.0000
   6618 H         381.1803    0.8247  -99.9547 H      1102        0    0.0000
   6619 C         380.3172   -0.3550  -98.3321 C.3    1103        0    0.0000
   6620 C         380.3181   -1.6500  -99.1518 C.3    1103        0    0.0000
   6621 H         381.1830   -0.3355  -97.6587 H      1103        0    0.0000
   6622 H         379.4234   -0.3122  -97.6974 H      1103        0    0.0000
   6623 H         379.6666   -1.5413 -100.0277 H      1103        0    0.0000
   6624 H         381.3267   -1.8534  -99.5327 H      1103        0    0.0000
   6625 C         379.8362   -2.8841  -98.3137 C.3    1104        0    0.0000
   6626 C         380.0713   -4.2103  -99.0449 C.3    1104        0    0.0000
   6627 H         380.3639   -2.8861  -97.3519 H      1104        0    0.0000
   6628 H         378.7696   -2.7631  -98.0876 H      1104        0    0.0000
   6629 H         379.3230   -4.3413  -99.8364 H      1104        0    0.0000
   6630 H         381.0518   -4.2000  -99.5369 H      1104        0    0.0000
   6631 C         380.0044   -5.4421  -98.0775 C.3    1105        0    0.0000
   6632 C         380.1863   -6.7721  -98.8171 C.3    1105        0    0.0000
   6633 H         380.7788   -5.3303  -97.3085 H      1105        0    0.0000
   6634 H         379.0390   -5.4304  -97.5564 H      1105        0    0.0000
   6635 H         379.3503   -6.9356  -99.5083 H      1105        0    0.0000
   6636 H         381.0978   -6.7418  -99.4268 H      1105        0    0.0000
   6637 C         380.2756   -7.9907  -97.8350 C.3    1106        0    0.0000
   6638 C         380.5753   -9.3044  -98.5652 C.3    1106        0    0.0000
   6639 H         381.0551   -7.7881  -97.0900 H      1106        0    0.0000
   6640 H         379.3292   -8.0727  -97.2863 H      1106        0    0.0000
   6641 H         379.7827   -9.5199  -99.2924 H      1106        0    0.0000
   6642 H         381.5089   -9.2141  -99.1342 H      1106        0    0.0000
   6643 C         380.6998  -10.5170  -97.5795 C.3    1107        0    0.0000
   6644 C         380.8949  -11.8468  -98.3161 C.3    1107        0    0.0000
   6645 H         381.5424  -10.3359  -96.9007 H      1107        0    0.0000
   6646 H         379.7976  -10.5607  -96.9568 H      1107        0    0.0000
   6647 H         379.9780  -12.1164  -98.8547 H      1107        0    0.0000
   6648 H         381.6854  -11.7467  -99.0702 H      1107        0    0.0000
   6649 C         381.2710  -13.0160  -97.3419 C.3    1108        0    0.0000
   6650 C         381.2509  -14.3812  -98.0382 C.3    1108        0    0.0000
   6651 H         382.2664  -12.8216  -96.9239 H      1108        0    0.0000
   6652 H         380.5692  -13.0133  -96.4987 H      1108        0    0.0000
   6653 H         380.2310  -14.6233  -98.3620 H      1108        0    0.0000
   6654 H         381.8701  -14.3511  -98.9433 H      1108        0    0.0000
   6655 C         381.7717  -15.5304  -97.1077 C.3    1109        0    0.0000
   6656 C         381.5688  -16.9171  -97.7281 C.3    1109        0    0.0000
   6657 H         382.8360  -15.3629  -96.9009 H      1109        0    0.0000
   6658 H         381.2502  -15.4692  -96.1445 H      1109        0    0.0000
   6659 H         380.5009  -17.1678  -97.7477 H      1109        0    0.0000
   6660 H         381.9114  -16.9168  -98.7703 H      1109        0    0.0000
   6661 C         382.3364  -18.0368  -96.9442 C.3    1110        0    0.0000
   6662 C         381.7233  -19.4241  -97.1638 C.3    1110        0    0.0000
   6663 H         383.3863  -18.0349  -97.2624 H      1110        0    0.0000
   6664 H         382.3306  -17.7878  -95.8758 H      1110        0    0.0000
   6665 H         380.7876  -19.5157  -96.5984 H      1110        0    0.0000
   6666 H         381.4664  -19.5587  -98.2218 H      1110        0    0.0000
   6667 C         382.6917  -20.5774  -96.7283 C.3    1111        0    0.0000
   6668 C         381.9377  -21.7895  -96.1704 C.3    1111        0    0.0000
   6669 H         383.2969  -20.8763  -97.5931 H      1111        0    0.0000
   6670 H         383.3885  -20.1887  -95.9754 H      1111        0    0.0000
   6671 H         381.5192  -21.5511  -95.1847 H      1111        0    0.0000
   6672 H         381.0898  -22.0372  -96.8211 H      1111        0    0.0000
   6673 C         382.8577  -23.0517  -96.0370 C.3    1112        0    0.0000
   6674 C         382.4088  -23.9805  -94.9035 C.3    1112        0    0.0000
   6675 H         382.8550  -23.5937  -96.9908 H      1112        0    0.0000
   6676 H         383.8895  -22.7206  -95.8656 H      1112        0    0.0000
   6677 H         382.4813  -23.4607  -93.9402 H      1112        0    0.0000
   6678 H         381.3543  -24.2530  -95.0358 H      1112        0    0.0000
   6679 C         383.2648  -25.2920  -94.8358 C.3    1113        0    0.0000
   6680 C         382.9274  -26.1431  -93.6067 C.3    1113        0    0.0000
   6681 H         383.0970  -25.8715  -95.7521 H      1113        0    0.0000
   6682 H         384.3276  -25.0204  -94.8250 H      1113        0    0.0000
   6683 H         382.9994  -25.5347  -92.6966 H      1113        0    0.0000
   6684 H         381.8909  -26.4974  -93.6675 H      1113        0    0.0000
   6685 C         383.8773  -27.3819  -93.4628 C.3    1114        0    0.0000
   6686 C         383.1806  -28.5739  -92.7976 C.3    1114        0    0.0000
   6687 H         384.2408  -27.6661  -94.4581 H      1114        0    0.0000
   6688 H         384.7575  -27.0865  -92.8784 H      1114        0    0.0000
   6689 H         382.7832  -28.2789  -91.8185 H      1114        0    0.0000
   6690 H         382.3228  -28.8937  -93.4023 H      1114        0    0.0000
   6691 C         384.1457  -29.7941  -92.6045 C.3    1115        0    0.0000
   6692 C         383.4413  -30.9966  -91.9666 C.3    1115        0    0.0000
   6693 H         384.5600  -30.0751  -93.5806 H      1115        0    0.0000
   6694 H         384.9923  -29.4801  -91.9814 H      1115        0    0.0000
   6695 H         383.2490  -30.8000  -90.9046 H      1115        0    0.0000
   6696 H         382.4641  -31.1546  -92.4397 H      1115        0    0.0000
   6697 C         384.2824  -32.3134  -92.0926 C.3    1116        0    0.0000
   6698 C         384.9315  -32.7173  -90.7642 C.3    1116        0    0.0000
   6699 H         383.6285  -33.1177  -92.4517 H      1116        0    0.0000
   6700 H         385.0536  -32.1684  -92.8593 H      1116        0    0.0000
   6701 H         385.3435  -31.8329  -90.2626 H      1116        0    0.0000
   6702 H         384.1763  -33.1390  -90.0894 H      1116        0    0.0000
   6703 C         386.0785  -33.7681  -90.9587 C.3    1117        0    0.0000
   6704 C         386.2095  -34.7136  -89.7596 C.3    1117        0    0.0000
   6705 H         385.8799  -34.3435  -91.8714 H      1117        0    0.0000
   6706 H         387.0229  -33.2345  -91.1220 H      1117        0    0.0000
   6707 H         386.3940  -34.1372  -88.8445 H      1117        0    0.0000
   6708 H         385.2694  -35.2577  -89.6050 H      1117        0    0.0000
   6709 C         387.3695  -35.7516  -89.9454 C.3    1118        0    0.0000
   6710 C         386.9289  -37.1810  -89.6111 C.3    1118        0    0.0000
   6711 H         387.7269  -35.7007  -90.9813 H      1118        0    0.0000
   6712 H         388.2119  -35.4585  -89.3067 H      1118        0    0.0000
   6713 H         386.9260  -37.3292  -88.5241 H      1118        0    0.0000
   6714 H         385.9004  -37.3477  -89.9545 H      1118        0    0.0000
   6715 C         387.8610  -38.2583  -90.2654 C.3    1119        0    0.0000
   6716 C         388.3297  -39.3114  -89.2553 C.3    1119        0    0.0000
   6717 H         387.3198  -38.7412  -91.0885 H      1119        0    0.0000
   6718 H         388.7268  -37.7531  -90.7112 H      1119        0    0.0000
   6719 H         389.0568  -38.8705  -88.5622 H      1119        0    0.0000
   6720 H         387.4826  -39.6532  -88.6478 H      1119        0    0.0000
   6721 C         388.9850  -40.5531  -89.9526 C.3    1120        0    0.0000
   6722 C         389.2134  -41.7134  -88.9776 C.3    1120        0    0.0000
   6723 H         388.3390  -40.8770  -90.7780 H      1120        0    0.0000
   6724 H         389.9379  -40.2451  -90.4006 H      1120        0    0.0000
   6725 H         388.5188  -41.6364  -88.1320 H      1120        0    0.0000
   6726 H         389.0013  -42.6687  -89.4735 H      1120        0    0.0000
   6727 C         390.6802  -41.7455  -88.4254 C.3    1121        0    0.0000
   6728 C         390.7551  -42.3268  -87.0093 C.3    1121        0    0.0000
   6729 H         391.3022  -42.3372  -89.1084 H      1121        0    0.0000
   6730 H         391.0841  -40.7255  -88.4352 H      1121        0    0.0000
   6731 H         391.4622  -41.7482  -86.4020 H      1121        0    0.0000
   6732 H         389.7778  -42.2462  -86.5173 H      1121        0    0.0000
   6733 C         391.1994  -43.8302  -87.0069 C.3    1122        0    0.0000
   6734 C         390.7474  -44.5675  -85.7416 C.3    1122        0    0.0000
   6735 H         390.7870  -44.3221  -87.8966 H      1122        0    0.0000
   6736 H         392.2916  -43.8763  -87.0993 H      1122        0    0.0000
   6737 H         391.3572  -44.2537  -84.8853 H      1122        0    0.0000
   6738 H         389.7097  -44.3035  -85.5028 H      1122        0    0.0000
   6739 C         390.8508  -46.1244  -85.8922 C.3    1123        0    0.0000
   6740 C         391.2849  -46.8064  -84.5901 C.3    1123        0    0.0000
   6741 H         389.8772  -46.5139  -86.2144 H      1123        0    0.0000
   6742 H         391.5634  -46.3555  -86.6936 H      1123        0    0.0000
   6743 H         392.3689  -46.7042  -84.4552 H      1123        0    0.0000
   6744 H         390.8128  -46.3130  -83.7315 H      1123        0    0.0000
   6745 C         390.9139  -48.3292  -84.5647 C.3    1124        0    0.0000
   6746 C         391.8632  -49.1437  -83.6790 C.3    1124        0    0.0000
   6747 H         389.8821  -48.4358  -84.2077 H      1124        0    0.0000
   6748 H         390.9334  -48.7151  -85.5915 H      1124        0    0.0000
   6749 H         392.3749  -48.4826  -82.9686 H      1124        0    0.0000
   6750 H         391.2935  -49.8667  -83.0823 H      1124        0    0.0000
   6751 C         392.9402  -49.9164  -84.5159 C.3    1125        0    0.0000
   6752 C         393.6248  -51.0209  -83.7032 C.3    1125        0    0.0000
   6753 H         392.4577  -50.3460  -85.4026 H      1125        0    0.0000
   6754 H         393.6866  -49.1995  -84.8798 H      1125        0    0.0000
   6755 H         392.8758  -51.7247  -83.3195 H      1125        0    0.0000
   6756 H         394.2993  -51.5987  -84.3471 H      1125        0    0.0000
   6757 C         394.4454  -50.4486  -82.4963 C.3    1126        0    0.0000
   6758 C         395.1501  -51.5510  -81.6982 C.3    1126        0    0.0000
   6759 H         395.1822  -49.7311  -82.8782 H      1126        0    0.0000
   6760 H         393.7673  -49.8860  -81.8427 H      1126        0    0.0000
   6761 H         395.1467  -52.4886  -82.2679 H      1126        0    0.0000
   6762 H         396.2019  -51.2846  -81.5364 H      1126        0    0.0000
   6763 C         394.4728  -51.8028  -80.3070 C.3    1127        0    0.0000
   6764 C         394.4787  -53.2851  -79.9178 C.3    1127        0    0.0000
   6765 H         394.9978  -51.2120  -79.5461 H      1127        0    0.0000
   6766 H         393.4427  -51.4271  -80.3421 H      1127        0    0.0000
   6767 H         394.3113  -53.3915  -78.8388 H      1127        0    0.0000
   6768 H         393.6542  -53.8086  -80.4176 H      1127        0    0.0000
   6769 C         395.8268  -53.9923  -80.2920 C.3    1128        0    0.0000
   6770 C         395.7992  -55.4941  -79.9871 C.3    1128        0    0.0000
   6771 H         396.0280  -53.8286  -81.3580 H      1128        0    0.0000
   6772 H         396.6436  -53.5113  -79.7398 H      1128        0    0.0000
   6773 H         395.2901  -55.6747  -79.0322 H      1128        0    0.0000
   6774 H         395.2233  -56.0236  -80.7562 H      1128        0    0.0000
   6775 C         397.2379  -56.1128  -79.9176 C.3    1129        0    0.0000
   6776 C         397.2224  -57.5658  -79.4304 C.3    1129        0    0.0000
   6777 H         397.6963  -56.0545  -80.9126 H      1129        0    0.0000
   6778 H         397.8550  -55.4987  -79.2500 H      1129        0    0.0000
   6779 H         396.2886  -57.7725  -78.8931 H      1129        0    0.0000
   6780 H         397.2509  -58.2502  -80.2873 H      1129        0    0.0000
   6781 C         398.4310  -57.8886  -78.4856 C.3    1130        0    0.0000
   6782 C         398.4624  -59.3621  -78.0653 C.3    1130        0    0.0000
   6783 H         399.3629  -57.6245  -79.0007 H      1130        0    0.0000
   6784 H         398.3682  -57.2457  -77.5988 H      1130        0    0.0000
   6785 H         397.6051  -59.5872  -77.4188 H      1130        0    0.0000
   6786 H         398.3693  -60.0071  -78.9478 H      1130        0    0.0000
   6787 C         399.7810  -59.7349  -77.3039 C.3    1131        0    0.0000
   6788 C         399.8583  -61.2295  -76.9735 C.3    1131        0    0.0000
   6789 H         400.6400  -59.4408  -77.9196 H      1131        0    0.0000
   6790 H         399.8366  -59.1425  -76.3821 H      1131        0    0.0000
   6791 H         398.9070  -61.5700  -76.5464 H      1131        0    0.0000
   6792 H         400.0175  -61.8097  -77.8909 H      1131        0    0.0000
   6793 C         401.0115  -61.5557  -75.9629 C.3    1132        0    0.0000
   6794 C         401.0992  -63.0525  -75.6451 C.3    1132        0    0.0000
   6795 H         401.9613  -61.2045  -76.3848 H      1132        0    0.0000
   6796 H         400.8459  -60.9845  -75.0411 H      1132        0    0.0000
   6797 H         400.1277  -63.4194  -75.2913 H      1132        0    0.0000
   6798 H         401.3367  -63.6170  -76.5552 H      1132        0    0.0000
   6799 C         402.1842  -63.3665  -74.5581 C.3    1133        0    0.0000
   6800 C         402.3923  -64.8723  -74.3631 C.3    1133        0    0.0000
   6801 H         403.1281  -62.8914  -74.8531 H      1133        0    0.0000
   6802 H         401.8807  -62.9029  -73.6113 H      1133        0    0.0000
   6803 H         402.0283  -65.4193  -75.2417 H      1133        0    0.0000
   6804 H         403.4627  -65.0958  -74.2742 H      1133        0    0.0000
   6805 C         401.6555  -65.4139  -73.0898 C.3    1134        0    0.0000
   6806 C         402.2984  -66.6952  -72.5476 C.3    1134        0    0.0000
   6807 H         401.6630  -64.6339  -72.3184 H      1134        0    0.0000
   6808 H         400.6037  -65.5981  -73.3414 H      1134        0    0.0000
   6809 H         403.3531  -66.5138  -72.3061 H      1134        0    0.0000
   6810 H         401.8084  -66.9957  -71.6132 H      1134        0    0.0000
   6811 C         402.2108  -67.8818  -73.5684 C.3    1135        0    0.0000
   6812 C         403.0133  -69.1039  -73.1087 C.3    1135        0    0.0000
   6813 H         401.1567  -68.1535  -73.7050 H      1135        0    0.0000
   6814 H         402.5761  -67.5369  -74.5437 H      1135        0    0.0000
   6815 H         402.4142  -70.0148  -73.2305 H      1135        0    0.0000
   6816 H         403.9044  -69.2267  -73.7367 H      1135        0    0.0000
   6817 C         403.4623  -68.9908  -71.6110 C.3    1136        0    0.0000
   6818 C         404.3000  -70.1936  -71.1634 C.3    1136        0    0.0000
   6819 H         404.0358  -68.0644  -71.4828 H      1136        0    0.0000
   6820 H         402.5695  -68.8985  -70.9802 H      1136        0    0.0000
   6821 H         403.6473  -71.0511  -70.9582 H      1136        0    0.0000
   6822 H         404.9788  -70.5000  -71.9690 H      1136        0    0.0000
   6823 C         405.1460  -69.8840  -69.8804 C.3    1137        0    0.0000
   6824 C         406.0623  -71.0500  -69.4935 C.3    1137        0    0.0000
   6825 H         405.7420  -68.9806  -70.0593 H      1137        0    0.0000
   6826 H         404.4628  -69.6522  -69.0539 H      1137        0    0.0000
   6827 H         406.4173  -71.5646  -70.3951 H      1137        0    0.0000
   6828 H         406.9525  -70.6729  -68.9750 H      1137        0    0.0000
   6829 C         405.3416  -72.0905  -68.5686 C.3    1138        0    0.0000
   6830 C         406.1325  -73.3967  -68.4371 C.3    1138        0    0.0000
   6831 H         405.1919  -71.6402  -67.5794 H      1138        0    0.0000
   6832 H         404.3437  -72.2943  -68.9762 H      1138        0    0.0000
   6833 H         405.7225  -74.0042  -67.6209 H      1138        0    0.0000
   6834 H         406.0319  -73.9912  -69.3536 H      1138        0    0.0000
   6835 C         407.6553  -73.1442  -68.1633 C.3    1139        0    0.0000
   6836 C         408.4908  -74.4210  -68.3068 C.3    1139        0    0.0000
   6837 H         408.0174  -72.3774  -68.8594 H      1139        0    0.0000
   6838 H         407.7693  -72.7316  -67.1532 H      1139        0    0.0000
   6839 H         407.9174  -75.1876  -68.8426 H      1139        0    0.0000
   6840 H         409.3858  -74.2193  -68.9085 H      1139        0    0.0000
   6841 C         408.9348  -74.9997  -66.9193 C.3    1140        0    0.0000
   6842 C         409.4216  -76.4492  -67.0233 C.3    1140        0    0.0000
   6843 H         409.7296  -74.3644  -66.5091 H      1140        0    0.0000
   6844 H         408.0896  -74.9358  -66.2228 H      1140        0    0.0000
   6845 H         408.5659  -77.1356  -67.0064 H      1140        0    0.0000
   6846 H         409.9327  -76.6065  -67.9813 H      1140        0    0.0000
   6847 C         410.3999  -76.8324  -65.8598 C.3    1141        0    0.0000
   6848 C         410.7356  -78.3278  -65.8520 C.3    1141        0    0.0000
   6849 H         411.3184  -76.2411  -65.9610 H      1141        0    0.0000
   6850 H         409.9434  -76.5444  -64.9048 H      1141        0    0.0000
   6851 H         409.8309  -78.9154  -65.6528 H      1141        0    0.0000
   6852 H         411.1008  -78.6365  -66.8394 H      1141        0    0.0000
   6853 C         411.8188  -78.6879  -64.7775 C.3    1142        0    0.0000
   6854 C         412.1058  -80.1924  -64.7236 C.3    1142        0    0.0000
   6855 H         412.7398  -78.1371  -65.0055 H      1142        0    0.0000
   6856 H         411.4753  -78.3351  -63.7971 H      1142        0    0.0000
   6857 H         411.1915  -80.7579  -64.9425 H      1142        0    0.0000
   6858 H         412.8365  -80.4639  -65.4957 H      1142        0    0.0000
   6859 C         412.6562  -80.6426  -63.3265 C.3    1143        0    0.0000
   6860 C         413.3870  -81.9880  -63.3962 C.3    1143        0    0.0000
   6861 H         413.3319  -79.8667  -62.9459 H      1143        0    0.0000
   6862 H         411.8190  -80.7054  -62.6203 H      1143        0    0.0000
   6863 H         412.6950  -82.7758  -63.7185 H      1143        0    0.0000
   6864 H         414.1858  -81.9437  -64.1469 H      1143        0    0.0000
   6865 C         414.0114  -82.3970  -62.0176 C.3    1144        0    0.0000
   6866 C         414.7124  -83.7586  -62.0786 C.3    1144        0    0.0000
   6867 H         414.7225  -81.6213  -61.7075 H      1144        0    0.0000
   6868 H         413.2168  -82.4165  -61.2614 H      1144        0    0.0000
   6869 H         413.9832  -84.5474  -62.3010 H      1144        0    0.0000
   6870 H         415.4455  -83.7681  -62.8947 H      1144        0    0.0000
   6871 C         415.4443  -84.1105  -60.7377 C.3    1145        0    0.0000
   6872 C         416.0188  -85.5314  -60.7451 C.3    1145        0    0.0000
   6873 H         416.2467  -83.3812  -60.5709 H      1145        0    0.0000
   6874 H         414.7363  -83.9953  -59.9076 H      1145        0    0.0000
   6875 H         415.2051  -86.2659  -60.7891 H      1145        0    0.0000
   6876 H         416.6308  -85.6851  -61.6426 H      1145        0    0.0000
   6877 C         416.8959  -85.8243  -59.4793 C.3    1146        0    0.0000
   6878 C         417.3048  -87.2982  -59.3843 C.3    1146        0    0.0000
   6879 H         417.7887  -85.1876  -59.5127 H      1146        0    0.0000
   6880 H         416.3335  -85.5315  -58.5840 H      1146        0    0.0000
   6881 H         416.4457  -87.9080  -59.0782 H      1146        0    0.0000
   6882 H         417.6174  -87.6661  -60.3694 H      1146        0    0.0000
   6883 C         418.4745  -87.5259  -58.3656 C.3    1147        0    0.0000
   6884 C         418.8094  -89.0109  -58.1881 C.3    1147        0    0.0000
   6885 H         419.3594  -86.9799  -58.7155 H      1147        0    0.0000
   6886 H         418.1938  -87.0856  -57.4008 H      1147        0    0.0000
   6887 H         417.9278  -89.5547  -57.8268 H      1147        0    0.0000
   6888 H         419.0785  -89.4540  -59.1550 H      1147        0    0.0000
   6889 C         419.9902  -89.2376  -57.1822 C.3    1148        0    0.0000
   6890 C         420.3427  -90.7208  -57.0251 C.3    1148        0    0.0000
   6891 H         420.8660  -88.6778  -57.5331 H      1148        0    0.0000
   6892 H         419.7130  -88.8117  -56.2099 H      1148        0    0.0000
   6893 H         419.4272  -91.3247  -57.0026 H      1148        0    0.0000
   6894 H         420.9246  -91.0628  -57.8899 H      1148        0    0.0000
   6895 C         421.1650  -91.0010  -55.7201 C.3    1149        0    0.0000
   6896 C         421.6651  -92.4479  -55.6481 C.3    1149        0    0.0000
   6897 H         422.0139  -90.3072  -55.6812 H      1149        0    0.0000
   6898 H         420.5350  -90.7770  -54.8503 H      1149        0    0.0000
   6899 H         421.0683  -93.0857  -56.3120 H      1149        0    0.0000
   6900 H         422.7014  -92.5059  -56.0034 H      1149        0    0.0000
   6901 C         421.5965  -93.0286  -54.1936 C.3    1150        0    0.0000
   6902 C         422.6182  -94.1482  -53.9663 C.3    1150        0    0.0000
   6903 H         421.7663  -92.2136  -53.4792 H      1150        0    0.0000
   6904 H         420.5816  -93.4024  -54.0097 H      1150        0    0.0000
   6905 H         423.4197  -94.0831  -54.7125 H      1150        0    0.0000
   6906 H         423.0921  -94.0312  -52.9839 H      1150        0    0.0000
   6907 C         421.9671  -95.5720  -54.0469 C.3    1151        0    0.0000
   6908 C         422.8803  -96.6615  -53.4741 C.3    1151        0    0.0000
   6909 H         421.0140  -95.5562  -53.5039 H      1151        0    0.0000
   6910 H         421.7291  -95.7932  -55.0947 H      1151        0    0.0000
   6911 H         422.8895  -96.6070  -52.3785 H      1151        0    0.0000
   6912 H         422.4930  -97.6536  -53.7370 H      1151        0    0.0000
   6913 C         424.3527  -96.5387  -53.9984 C.3    1152        0    0.0000
   6914 C         425.3333  -97.3855  -53.1796 C.3    1152        0    0.0000
   6915 H         424.3797  -96.8449  -55.0515 H      1152        0    0.0000
   6916 H         424.6516  -95.4836  -53.9693 H      1152        0    0.0000
   6917 H         425.0792  -98.4488  -53.2708 H      1152        0    0.0000
   6918 H         426.3504  -97.2697  -53.5739 H      1152        0    0.0000
   6919 C         425.3322  -96.9941  -51.6615 C.3    1153        0    0.0000
   6920 C         426.3006  -97.8521  -50.8399 C.3    1153        0    0.0000
   6921 H         425.5981  -95.9338  -51.5695 H      1153        0    0.0000
   6922 H         424.3126  -97.0983  -51.2703 H      1153        0    0.0000
   6923 H         426.9839  -98.3917  -51.5072 H      1153        0    0.0000
   6924 H         426.9228  -97.2115  -50.2027 H      1153        0    0.0000
   6925 C         425.5526  -98.8909  -49.9349 C.3    1154        0    0.0000
   6926 C         426.3415 -100.1951  -49.7738 C.3    1154        0    0.0000
   6927 H         425.3705  -98.4377  -48.9527 H      1154        0    0.0000
   6928 H         424.5687  -99.0983  -50.3736 H      1154        0    0.0000
   6929 H         425.9813 -100.7467  -48.8966 H      1154        0    0.0000
   6930 H         426.1774 -100.8438  -50.6432 H      1154        0    0.0000
   6931 C         427.8806  -99.9427  -49.6151 C.3    1155        0    0.0000
   6932 C         428.6655 -101.2445  -49.4193 C.3    1155        0    0.0000
   6933 H         428.2456  -99.4134  -50.5040 H      1155        0    0.0000
   6934 H         428.0429  -99.2735  -48.7611 H      1155        0    0.0000
   6935 H         428.0526 -102.1025  -49.7222 H      1155        0    0.0000
   6936 H         429.5536 -101.2487  -50.0633 H      1155        0    0.0000
   6937 C         429.1186 -101.4471  -47.9323 C.3    1156        0    0.0000
   6938 C         430.0906 -102.6217  -47.7762 C.3    1156        0    0.0000
   6939 H         429.5870 -100.5213  -47.5761 H      1156        0    0.0000
   6940 H         428.2293 -101.6096  -47.3107 H      1156        0    0.0000
   6941 H         430.4205 -102.9706  -48.7626 H      1156        0    0.0000
   6942 H         430.9906 -102.2965  -47.2398 H      1156        0    0.0000
   6943 C         429.4489 -103.8252  -47.0032 C.3    1157        0    0.0000
   6944 C         430.5052 -104.7556  -46.3969 C.3    1157        0    0.0000
   6945 H         428.7970 -103.4311  -46.2137 H      1157        0    0.0000
   6946 H         428.8054 -104.3856  -47.6927 H      1157        0    0.0000
   6947 H         431.2597 -104.1682  -45.8591 H      1157        0    0.0000
   6948 H         430.0407 -105.4221  -45.6596 H      1157        0    0.0000
   6949 C         431.2238 -105.6270  -47.4840 C.3    1158        0    0.0000
   6950 C         432.2495 -106.5880  -46.8732 C.3    1158        0    0.0000
   6951 H         430.4663 -106.1906  -48.0427 H      1158        0    0.0000
   6952 H         431.7148 -104.9603  -48.2037 H      1158        0    0.0000
   6953 H         431.7359 -107.4198  -46.3753 H      1158        0    0.0000
   6954 H         432.8696 -107.0286  -47.6637 H      1158        0    0.0000
   6955 C         433.1846 -105.8775  -45.8347 C.3    1159        0    0.0000
   6956 C         433.9398 -106.8782  -44.9532 C.3    1159        0    0.0000
   6957 H         433.8959 -105.2417  -46.3764 H      1159        0    0.0000
   6958 H         432.5773 -105.2101  -45.2108 H      1159        0    0.0000
   6959 H         433.2301 -107.4635  -44.3556 H      1159        0    0.0000
   6960 H         434.4882 -107.5925  -45.5798 H      1159        0    0.0000
   6961 C         434.9526 -106.1726  -43.9868 C.3    1160        0    0.0000
   6962 C         435.5809 -107.1511  -42.9885 C.3    1160        0    0.0000
   6963 H         435.7359 -105.6913  -44.5855 H      1160        0    0.0000
   6964 H         434.4295 -105.3715  -43.4500 H      1160        0    0.0000
   6965 H         436.5099 -106.7307  -42.5836 H      1160        0    0.0000
   6966 H         434.9068 -107.3039  -42.1366 H      1160        0    0.0000
   6967 C         435.8970 -108.5421  -43.6387 C.3    1161        0    0.0000
   6968 C         435.9186 -109.6744  -42.6061 C.3    1161        0    0.0000
   6969 H         435.1454 -108.7508  -44.4101 H      1161        0    0.0000
   6970 H         436.8654 -108.4813  -44.1506 H      1161        0    0.0000
   6971 H         436.7603 -109.5381  -41.9159 H      1161        0    0.0000
   6972 H         435.0055 -109.6471  -41.9986 H      1161        0    0.0000
   6973 C         436.0378 -111.0869  -43.2756 C.3    1162        0    0.0000
   6974 C         437.0866 -111.9686  -42.5888 C.3    1162        0    0.0000
   6975 H         435.0565 -111.5765  -43.2453 H      1162        0    0.0000
   6976 H         436.2919 -110.9558  -44.3348 H      1162        0    0.0000
   6977 H         437.2067 -112.9092  -43.1404 H      1162        0    0.0000
   6978 H         438.0635 -111.4696  -42.6005 H      1162        0    0.0000
   6979 C         436.7054 -112.2985  -41.1044 C.3    1163        0    0.0000
   6980 C         437.8915 -112.8569  -40.3106 C.3    1163        0    0.0000
   6981 H         436.3280 -111.3866  -40.6253 H      1163        0    0.0000
   6982 H         435.8790 -113.0200  -41.1036 H      1163        0    0.0000
   6983 H         438.8276 -112.6697  -40.8511 H      1163        0    0.0000
   6984 H         437.9756 -112.3402  -39.3465 H      1163        0    0.0000
   6985 C         437.7587 -114.3968  -40.0485 C.3    1164        0    0.0000
   6986 C         439.0960 -115.0375  -39.6610 C.3    1164        0    0.0000
   6987 H         437.0201 -114.5578  -39.2534 H      1164        0    0.0000
   6988 H         437.3595 -114.8760  -40.9510 H      1164        0    0.0000
   6989 H         438.9310 -115.8415  -38.9330 H      1164        0    0.0000
   6990 H         439.5606 -115.4997  -40.5408 H      1164        0    0.0000
   6991 C         440.0971 -113.9985  -39.0481 C.3    1165        0    0.0000
   6992 C         441.4620 -114.6216  -38.7355 C.3    1165        0    0.0000
   6993 H         440.2164 -113.1650  -39.7515 H      1165        0    0.0000
   6994 H         439.6568 -113.5794  -38.1349 H      1165        0    0.0000
   6995 H         441.5964 -115.5434  -39.3151 H      1165        0    0.0000
   6996 H         442.2655 -113.9390  -39.0385 H      1165        0    0.0000
   6997 C         441.6287 -114.9537  -37.2125 C.3    1166        0    0.0000
   6998 C         442.7427 -115.9754  -36.9592 C.3    1166        0    0.0000
   6999 H         441.8398 -114.0244  -36.6690 H      1166        0    0.0000
   7000 H         440.6746 -115.3341  -36.8271 H      1166        0    0.0000
   7001 H         443.3946 -116.0468  -37.8386 H      1166        0    0.0000
   7002 H         443.3739 -115.6447  -36.1251 H      1166        0    0.0000
   7003 C         442.1783 -117.4007  -36.6315 C.3    1167        0    0.0000
   7004 C         443.2872 -118.3962  -36.2731 C.3    1167        0    0.0000
   7005 H         441.4657 -117.3167  -35.8017 H      1167        0    0.0000
   7006 H         441.6118 -117.7645  -37.4977 H      1167        0    0.0000
   7007 H         443.6228 -118.2303  -35.2418 H      1167        0    0.0000
   7008 H         442.9007 -119.4219  -36.3175 H      1167        0    0.0000
   7009 C         444.5225 -118.2799  -37.2313 C.3    1168        0    0.0000
   7010 C         445.6286 -119.2799  -36.8771 C.3    1168        0    0.0000
   7011 H         444.1861 -118.4408  -38.2630 H      1168        0    0.0000
   7012 H         444.9120 -117.2554  -37.1832 H      1168        0    0.0000
   7013 H         445.3215 -120.2952  -37.1569 H      1168        0    0.0000
   7014 H         446.5363 -119.0558  -37.4511 H      1168        0    0.0000
   7015 C         445.9796 -119.2611  -35.3493 C.3    1169        0    0.0000
   7016 C         446.9756 -120.3619  -34.9686 C.3    1169        0    0.0000
   7017 H         446.3906 -118.2768  -35.0930 H      1169        0    0.0000
   7018 H         445.0535 -119.3758  -34.7724 H      1169        0    0.0000
   7019 H         446.4559 -121.3235  -34.8747 H      1169        0    0.0000
   7020 H         447.7230 -120.4840  -35.7624 H      1169        0    0.0000
   7021 C         447.7155 -120.0538  -33.6213 C.3    1170        0    0.0000
   7022 C         448.3826 -121.2990  -33.0270 C.3    1170        0    0.0000
   7023 H         448.4662 -119.2741  -33.8004 H      1170        0    0.0000
   7024 H         446.9929 -119.6376  -32.9083 H      1170        0    0.0000
   7025 H         449.3281 -121.0245  -32.5431 H      1170        0    0.0000
   7026 H         447.7438 -121.7321  -32.2472 H      1170        0    0.0000
   7027 C         448.6692 -122.3943  -34.1113 C.3    1171        0    0.0000
   7028 C         449.2363 -123.6810  -33.5016 C.3    1171        0    0.0000
   7029 H         447.7380 -122.6116  -34.6492 H      1171        0    0.0000
   7030 H         449.3712 -121.9864  -34.8490 H      1171        0    0.0000
   7031 H         449.0020 -123.7249  -32.4307 H      1171        0    0.0000
   7032 H         448.7635 -124.5565  -33.9637 H      1171        0    0.0000
   7033 C         450.7895 -123.7904  -33.6838 C.3    1172        0    0.0000
   7034 C         451.4811 -124.3633  -32.4418 C.3    1172        0    0.0000
   7035 H         450.9996 -124.4216  -34.5562 H      1172        0    0.0000
   7036 H         451.1898 -122.7947  -33.9116 H      1172        0    0.0000
   7037 H         452.4778 -123.9194  -32.3279 H      1172        0    0.0000
   7038 H         450.9140 -124.1001  -31.5404 H      1172        0    0.0000
   7039 C         451.6272 -125.9227  -32.5094 C.3    1173        0    0.0000
   7040 C         452.5310 -126.4701  -31.3992 C.3    1173        0    0.0000
   7041 H         450.6300 -126.3746  -32.4397 H      1173        0    0.0000
   7042 H         452.0298 -126.1979  -33.4921 H      1173        0    0.0000
   7043 H         453.2240 -127.2142  -31.8110 H      1173        0    0.0000
   7044 H         453.1464 -125.6629  -30.9829 H      1173        0    0.0000
   7045 C         451.7116 -127.1310  -30.2377 C.3    1174        0    0.0000
   7046 C         452.6151 -127.6735  -29.1249 C.3    1174        0    0.0000
   7047 H         451.0157 -126.3880  -29.8286 H      1174        0    0.0000
   7048 H         451.0992 -127.9408  -30.6533 H      1174        0    0.0000
   7049 H         453.0427 -126.8433  -28.5492 H      1174        0    0.0000
   7050 H         452.0258 -128.2743  -28.4212 H      1174        0    0.0000
   7051 C         453.7844 -128.5545  -29.6855 C.3    1175        0    0.0000
   7052 C         454.9340 -128.7007  -28.6825 C.3    1175        0    0.0000
   7053 H         453.3874 -129.5426  -29.9493 H      1175        0    0.0000
   7054 H         454.1519 -128.1040  -30.6159 H      1175        0    0.0000
   7055 H         455.1072 -127.7477  -28.1674 H      1175        0    0.0000
   7056 H         454.6682 -129.4327  -27.9097 H      1175        0    0.0000
   7057 C         456.2682 -129.1534  -29.3698 C.3    1176        0    0.0000
   7058 C         457.2833 -129.7034  -28.3618 C.3    1176        0    0.0000
   7059 H         456.0365 -129.9154  -30.1242 H      1176        0    0.0000
   7060 H         456.6970 -128.2983  -29.9070 H      1176        0    0.0000
   7061 H         458.3029 -129.4542  -28.6807 H      1176        0    0.0000
   7062 H         457.1351 -129.2308  -27.3828 H      1176        0    0.0000
   7063 C         457.1718 -131.2580  -28.1944 C.3    1177        0    0.0000
   7064 C         458.3004 -131.8317  -27.3308 C.3    1177        0    0.0000
   7065 H         456.1983 -131.4967  -27.7484 H      1177        0    0.0000
   7066 H         457.1853 -131.7225  -29.1882 H      1177        0    0.0000
   7067 H         458.7103 -132.7352  -27.7990 H      1177        0    0.0000
   7068 H         459.1247 -131.1110  -27.2616 H      1177        0    0.0000
   7069 C         457.8179 -132.1878  -25.8823 C.3    1178        0    0.0000
   7070 C         458.9621 -132.6933  -24.9967 C.3    1178        0    0.0000
   7071 H         457.3598 -131.2978  -25.4334 H      1178        0    0.0000
   7072 H         457.0298 -132.9481  -25.9491 H      1178        0    0.0000
   7073 H         459.6523 -131.8716  -24.7685 H      1178        0    0.0000
   7074 H         458.5664 -133.0481  -24.0370 H      1178        0    0.0000
   7075 C         459.7671 -133.8564  -25.6724 C.3    1179        0    0.0000
   7076 C         461.1571 -134.0374  -25.0525 C.3    1179        0    0.0000
   7077 H         459.1906 -134.7852  -25.5808 H      1179        0    0.0000
   7078 H         459.8582 -133.6467  -26.7454 H      1179        0    0.0000
   7079 H         461.9167 -134.0931  -25.8420 H      1179        0    0.0000
   7080 H         461.4091 -133.1673  -24.4336 H      1179        0    0.0000
   7081 C         461.2502 -135.3294  -24.1696 C.3    1180        0    0.0000
   7082 C         462.6276 -135.4887  -23.5166 C.3    1180        0    0.0000
   7083 H         460.4709 -135.2878  -23.3986 H      1180        0    0.0000
   7084 H         461.0275 -136.2023  -24.7958 H      1180        0    0.0000
   7085 H         463.4008 -135.5869  -24.2886 H      1180        0    0.0000
   7086 H         462.8745 -134.5914  -22.9358 H      1180        0    0.0000
   7087 C         462.6960 -136.7373  -22.5711 C.3    1181        0    0.0000
   7088 C         464.1370 -137.1142  -22.2101 C.3    1181        0    0.0000
   7089 H         462.1238 -136.5226  -21.6600 H      1181        0    0.0000
   7090 H         462.1985 -137.5817  -23.0639 H      1181        0    0.0000
   7091 H         464.1772 -137.5114  -21.1882 H      1181        0    0.0000
   7092 H         464.4944 -137.9123  -22.8726 H      1181        0    0.0000
   7093 C         465.1149 -135.8935  -22.3165 C.3    1182        0    0.0000
   7094 C         466.5737 -136.2949  -22.0721 C.3    1182        0    0.0000
   7095 H         465.0103 -135.4424  -23.3110 H      1182        0    0.0000
   7096 H         464.8081 -135.1304  -21.5905 H      1182        0    0.0000
   7097 H         466.7563 -137.3043  -22.4610 H      1182        0    0.0000
   7098 H         467.2457 -135.6208  -22.6176 H      1182        0    0.0000
   7099 C         466.9518 -136.2634  -20.5511 C.3    1183        0    0.0000
   7100 C         467.7854 -137.4801  -20.1344 C.3    1183        0    0.0000
   7101 H         467.5054 -135.3392  -20.3435 H      1183        0    0.0000
   7102 H         466.0298 -136.2182  -19.9584 H      1183        0    0.0000
   7103 H         468.6793 -137.5577  -20.7656 H      1183        0    0.0000
   7104 H         468.1378 -137.3592  -19.1026 H      1183        0    0.0000
   7105 C         466.9758 -138.8186  -20.2382 C.3    1184        0    0.0000
   7106 C         467.7571 -140.0145  -19.6829 C.3    1184        0    0.0000
   7107 H         466.0296 -138.7025  -19.6954 H      1184        0    0.0000
   7108 H         466.7164 -138.9942  -21.2896 H      1184        0    0.0000
   7109 H         468.6349 -139.6644  -19.1258 H      1184        0    0.0000
   7110 H         467.1352 -140.5730  -18.9724 H      1184        0    0.0000
   7111 C         468.2326 -140.9904  -20.8138 C.3    1185        0    0.0000
   7112 C         469.7011 -141.3976  -20.6502 C.3    1185        0    0.0000
   7113 H         467.5921 -141.8810  -20.8048 H      1185        0    0.0000
   7114 H         468.0831 -140.5046  -21.7860 H      1185        0    0.0000
   7115 H         469.9802 -142.1196  -21.4276 H      1185        0    0.0000
   7116 H         470.3509 -140.5238  -20.7838 H      1185        0    0.0000
   7117 C         469.9890 -142.0312  -19.2454 C.3    1186        0    0.0000
   7118 C         471.4660 -142.3984  -19.0655 C.3    1186        0    0.0000
   7119 H         469.6803 -141.3217  -18.4676 H      1186        0    0.0000
   7120 H         469.3621 -142.9234  -19.1248 H      1186        0    0.0000
   7121 H         471.8672 -142.8119  -19.9991 H      1186        0    0.0000
   7122 H         472.0528 -141.4989  -18.8416 H      1186        0    0.0000
   7123 C         471.6830 -143.4423  -17.9162 C.3    1187        0    0.0000
   7124 C         473.1680 -143.6943  -17.6331 C.3    1187        0    0.0000
   7125 H         471.1835 -143.0789  -17.0096 H      1187        0    0.0000
   7126 H         471.1883 -144.3814  -18.1935 H      1187        0    0.0000
   7127 H         473.7570 -143.5352  -18.5448 H      1187        0    0.0000
   7128 H         473.5366 -142.9757  -16.8906 H      1187        0    0.0000
   7129 C         473.4344 -145.1465  -17.1064 C.3    1188        0    0.0000
   7130 C         474.9108 -145.3800  -16.7680 C.3    1188        0    0.0000
   7131 H         472.8130 -145.3204  -16.2192 H      1188        0    0.0000
   7132 H         473.1048 -145.8647  -17.8674 H      1188        0    0.0000
   7133 H         475.2874 -146.2555  -17.3114 H      1188        0    0.0000
   7134 H         475.5120 -144.5230  -17.0960 H      1188        0    0.0000
   7135 C         475.1408 -145.6006  -15.2331 C.3    1189        0    0.0000
   7136 C         476.5077 -146.2264  -14.9346 C.3    1189        0    0.0000
   7137 H         475.0487 -144.6356  -14.7194 H      1189        0    0.0000
   7138 H         474.3404 -146.2422  -14.8442 H      1189        0    0.0000
   7139 H         476.4010 -147.0262  -14.1913 H      1189        0    0.0000
   7140 H         476.9147 -146.6911  -15.8412 H      1189        0    0.0000
   7141 C         477.5389 -145.1738  -14.3997 C.3    1190        0    0.0000
   7142 C         478.8187 -145.8310  -13.8714 C.3    1190        0    0.0000
   7143 H         477.7819 -144.4740  -15.2088 H      1190        0    0.0000
   7144 H         477.0633 -144.5847  -13.6057 H      1190        0    0.0000
   7145 H         479.5777 -145.0658  -13.6665 H      1190        0    0.0000
   7146 H         478.6164 -146.3369  -12.9191 H      1190        0    0.0000
   7147 C         479.4118 -146.8732  -14.8811 C.3    1191        0    0.0000
   7148 C         480.4901 -147.7541  -14.2404 C.3    1191        0    0.0000
   7149 H         478.5956 -147.4974  -15.2653 H      1191        0    0.0000
   7150 H         479.8283 -146.3347  -15.7414 H      1191        0    0.0000
   7151 H         481.3715 -147.8035  -14.8918 H      1191        0    0.0000
   7152 H         480.8229 -147.3121  -13.2930 H      1191        0    0.0000
   7153 C         479.9816 -149.2115  -13.9669 C.3    1192        0    0.0000
   7154 C         480.8854 -149.9678  -12.9871 C.3    1192        0    0.0000
   7155 H         478.9589 -149.1611  -13.5731 H      1192        0    0.0000
   7156 H         479.9257 -149.7512  -14.9204 H      1192        0    0.0000
   7157 H         480.7796 -149.5497  -11.9784 H      1192        0    0.0000
   7158 H         480.5775 -151.0191  -12.9263 H      1192        0    0.0000
   7159 C         482.3954 -149.9068  -13.4036 C.3    1193        0    0.0000
   7160 C         483.2959 -150.6864  -12.4390 C.3    1193        0    0.0000
   7161 H         482.4983 -150.3062  -14.4201 H      1193        0    0.0000
   7162 H         482.7087 -148.8562  -13.4447 H      1193        0    0.0000
   7163 H         483.5789 -150.0501  -11.5913 H      1193        0    0.0000
   7164 H         482.7495 -151.5416  -12.0224 H      1193        0    0.0000
   7165 C         484.5994 -151.2100  -13.1350 C.3    1194        0    0.0000
   7166 C         485.5747 -151.8458  -12.1384 C.3    1194        0    0.0000
   7167 H         484.3202 -151.9393  -13.9056 H      1194        0    0.0000
   7168 H         485.0836 -150.3734  -13.6538 H      1194        0    0.0000
   7169 H         485.0221 -152.4275  -11.3902 H      1194        0    0.0000
   7170 H         486.2377 -152.5491  -12.6574 H      1194        0    0.0000
   7171 C         486.4513 -150.7761  -11.4002 C.3    1195        0    0.0000
   7172 C         487.6019 -151.4116  -10.6121 C.3    1195        0    0.0000
   7173 H         486.8473 -150.0710  -12.1414 H      1195        0    0.0000
   7174 H         485.8086 -150.1965  -10.7260 H      1195        0    0.0000
   7175 H         487.8091 -152.4186  -10.9950 H      1195        0    0.0000
   7176 H         488.5201 -150.8272  -10.7498 H      1195        0    0.0000
   7177 C         487.2898 -151.5084   -9.0789 C.3    1196        0    0.0000
   7178 C         488.1062 -152.6061   -8.3880 C.3    1196        0    0.0000
   7179 H         487.4968 -150.5365   -8.6139 H      1196        0    0.0000
   7180 H         486.2172 -151.6983   -8.9477 H      1196        0    0.0000
   7181 H         488.2858 -152.3378   -7.3395 H      1196        0    0.0000
   7182 H         487.5414 -153.5465   -8.3803 H      1196        0    0.0000
   7183 C         489.4861 -152.8513   -9.0903 C.3    1197        0    0.0000
   7184 C         490.0778 -154.2225   -8.7457 C.3    1197        0    0.0000
   7185 H         489.3516 -152.7616  -10.1753 H      1197        0    0.0000
   7186 H         490.1808 -152.0562   -8.7922 H      1197        0    0.0000
   7187 H         490.0869 -154.3656   -7.6580 H      1197        0    0.0000
   7188 H         489.4492 -155.0190   -9.1630 H      1197        0    0.0000
   7189 C         491.5378 -154.3935   -9.2902 C.3    1198        0    0.0000
   7190 C         492.2432 -155.6136   -8.6880 C.3    1198        0    0.0000
   7191 H         491.4995 -154.4824  -10.3830 H      1198        0    0.0000
   7192 H         492.1070 -153.4823   -9.0681 H      1198        0    0.0000
   7193 H         491.5095 -156.2738   -8.2090 H      1198        0    0.0000
   7194 H         492.7238 -156.1997   -9.4812 H      1198        0    0.0000
   7195 C         493.3273 -155.2109   -7.6298 C.3    1199        0    0.0000
   7196 C         494.4397 -156.2583   -7.5103 C.3    1199        0    0.0000
   7197 H         493.7534 -154.2401   -7.9120 H      1199        0    0.0000
   7198 H         492.8377 -155.0696   -6.6582 H      1199        0    0.0000
   7199 H         494.0060 -157.2474   -7.3174 H      1199        0    0.0000
   7200 H         494.9883 -156.3342   -8.4574 H      1199        0    0.0000
   7201 C         495.4544 -155.9194   -6.3645 C.3    1200        0    0.0000
   7202 C         496.6814 -156.8376   -6.3846 C.3    1200        0    0.0000
   7203 H         495.7663 -154.8726   -6.4666 H      1200        0    0.0000
   7204 H         494.9387 -156.0017   -5.3997 H      1200        0    0.0000
   7205 H         496.7303 -157.3791   -7.3375 H      1200        0    0.0000
   7206 H         497.5992 -156.2407   -6.3140 H      1200        0    0.0000
   7207 C         496.6639 -157.8783   -5.2124 C.3    1201        0    0.0000
   7208 C         498.0027 -158.6097   -5.0650 C.3    1201        0    0.0000
   7209 H         496.4158 -157.3564   -4.2798 H      1201        0    0.0000
   7210 H         495.8584 -158.6009   -5.3929 H      1201        0    0.0000
   7211 H         498.7820 -157.9071   -4.7448 H      1201        0    0.0000
   7212 H         497.9287 -159.3758   -4.2832 H      1201        0    0.0000
   7213 C         498.4565 -159.2932   -6.4009 C.3    1202        0    0.0000
   7214 C         499.7065 -160.1602   -6.2143 C.3    1202        0    0.0000
   7215 H         497.6294 -159.9033   -6.7846 H      1202        0    0.0000
   7216 H         498.6472 -158.5143   -7.1495 H      1202        0    0.0000
   7217 H         499.4376 -161.1097   -5.7350 H      1202        0    0.0000
   7218 H         500.1390 -160.4116   -7.1906 H      1202        0    0.0000
   7219 C         500.7996 -159.4475   -5.3457 C.3    1203        0    0.0000
   7220 C         501.9305 -160.3990   -4.9399 C.3    1203        0    0.0000
   7221 H         501.2056 -158.6010   -5.9132 H      1203        0    0.0000
   7222 H         500.3224 -159.0275   -4.4516 H      1203        0    0.0000
   7223 H         501.5337 -161.2120   -4.3194 H      1203        0    0.0000
   7224 H         502.3664 -160.8670   -5.8313 H      1203        0    0.0000
   7225 C         503.0673 -159.6666   -4.1468 C.3    1204        0    0.0000
   7226 C         504.1667 -160.6295   -3.6853 C.3    1204        0    0.0000
   7227 H         503.4961 -158.8841   -4.7850 H      1204        0    0.0000
   7228 H         502.6239 -159.1592   -3.2810 H      1204        0    0.0000
   7229 H         504.8873 -160.1006   -3.0492 H      1204        0    0.0000
   7230 H         503.7332 -161.4295   -3.0723 H      1204        0    0.0000
   7231 C         504.9347 -161.2755   -4.8896 C.3    1205        0    0.0000
   7232 C         506.0238 -162.2502   -4.4284 C.3    1205        0    0.0000
   7233 H         504.2125 -161.7949   -5.5318 H      1205        0    0.0000
   7234 H         505.3777 -160.4760   -5.4963 H      1205        0    0.0000
   7235 H         505.6548 -162.8590   -3.5937 H      1205        0    0.0000
   7236 H         506.2740 -162.9458   -5.2391 H      1205        0    0.0000
   7237 C         507.3299 -161.5108   -3.9759 C.3    1206        0    0.0000
   7238 C         508.4416 -162.4873   -3.5765 C.3    1206        0    0.0000
   7239 H         507.6724 -160.8653   -4.7943 H      1206        0    0.0000
   7240 H         507.0887 -160.8505   -3.1337 H      1206        0    0.0000
   7241 H         508.2502 -163.4748   -4.0146 H      1206        0    0.0000
   7242 H         509.4041 -162.1460   -3.9775 H      1206        0    0.0000
   7243 C         508.5677 -162.6402   -2.0215 C.3    1207        0    0.0000
   7244 C         509.7889 -163.4732   -1.6169 C.3    1207        0    0.0000
   7245 H         508.6279 -161.6414   -1.5717 H      1207        0    0.0000
   7246 H         507.6513 -163.1044   -1.6363 H      1207        0    0.0000
   7247 H         509.8775 -163.5046   -0.5238 H      1207        0    0.0000
   7248 H         509.6649 -164.5102   -1.9527 H      1207        0    0.0000
   7249 C         511.1212 -162.9040   -2.2157 C.3    1208        0    0.0000
   7250 C         512.2324 -163.9584   -2.2662 C.3    1208        0    0.0000
   7251 H         510.9204 -162.5206   -3.2237 H      1208        0    0.0000
   7252 H         511.4430 -162.0471   -1.6109 H      1208        0    0.0000
   7253 H         511.8498 -164.8872   -2.7073 H      1208        0    0.0000
   7254 H         513.0480 -163.6146   -2.9143 H      1208        0    0.0000
   7255 C         512.8151 -164.2761   -0.8460 C.3    1209        0    0.0000
   7256 C         514.0695 -165.1540   -0.9159 C.3    1209        0    0.0000
   7257 H         513.0452 -163.3310   -0.3387 H      1209        0    0.0000
   7258 H         512.0405 -164.7736   -0.2492 H      1209        0    0.0000
   7259 H         513.7899 -166.1932   -1.1291 H      1209        0    0.0000
   7260 H         514.7132 -164.8253   -1.7412 H      1209        0    0.0000
   7261 C         514.8960 -165.1162    0.4155 C.3    1210        0    0.0000
   7262 C         516.2383 -165.8447    0.2869 C.3    1210        0    0.0000
   7263 H         515.0617 -164.0695    0.6993 H      1210        0    0.0000
   7264 H         514.2977 -165.5686    1.2161 H      1210        0    0.0000
   7265 H         517.0618 -165.1198    0.2939 H      1210        0    0.0000
   7266 H         516.3923 -166.5047    1.1495 H      1210        0    0.0000
   7267 C         516.3277 -166.6983   -1.0249 C.3    1211        0    0.0000
   7268 C         517.7119 -167.3285   -1.2146 C.3    1211        0    0.0000
   7269 H         515.5596 -167.4808   -0.9906 H      1211        0    0.0000
   7270 H         516.0859 -166.0569   -1.8814 H      1211        0    0.0000
   7271 H         518.1252 -167.6278   -0.2435 H      1211        0    0.0000
   7272 H         517.6300 -168.2417   -1.8171 H      1211        0    0.0000
   7273 C         518.7191 -166.3511   -1.9130 C.3    1212        0    0.0000
   7274 C         520.1622 -166.8637   -1.8531 C.3    1212        0    0.0000
   7275 H         518.4119 -166.2134   -2.9571 H      1212        0    0.0000
   7276 H         518.6489 -165.3678   -1.4316 H      1212        0    0.0000
   7277 H         520.1705 -167.9397   -1.6393 H      1212        0    0.0000
   7278 H         520.6488 -166.7324   -2.8275 H      1212        0    0.0000
   7279 C         521.0103 -166.1249   -0.7611 C.3    1213        0    0.0000
   7280 C         522.3124 -166.8658   -0.4372 C.3    1213        0    0.0000
   7281 H         521.2327 -165.1099   -1.1129 H      1213        0    0.0000
   7282 H         520.4028 -166.0179    0.1460 H      1213        0    0.0000
   7283 H         522.5720 -167.5462   -1.2578 H      1213        0    0.0000
   7284 H         523.1395 -166.1509   -0.3471 H      1213        0    0.0000
   7285 C         522.2113 -167.6918    0.8912 C.3    1214        0    0.0000
   7286 C         523.4277 -168.5996    1.1048 C.3    1214        0    0.0000
   7287 H         522.1086 -166.9962    1.7332 H      1214        0    0.0000
   7288 H         521.2936 -168.2925    0.8652 H      1214        0    0.0000
   7289 H         523.5459 -168.8252    2.1718 H      1214        0    0.0000
   7290 H         523.2752 -169.5589    0.5949 H      1214        0    0.0000
   7291 C         524.7532 -167.9511    0.5756 C.3    1215        0    0.0000
   7292 C         525.7591 -169.0000    0.0889 C.3    1215        0    0.0000
   7293 H         524.5074 -167.2590   -0.2394 H      1215        0    0.0000
   7294 H         525.1967 -167.3483    1.3778 H      1215        0    0.0000
   7295 H         525.7128 -169.8906    0.7280 H      1215        0    0.0000
   7296 H         525.5004 -169.3268   -0.9259 H      1215        0    0.0000
   7297 C         527.2294 -168.4564    0.0852 C.3    1216        0    0.0000
   7298 C         528.2627 -169.5772   -0.0742 C.3    1216        0    0.0000
   7299 H         527.3353 -167.7286   -0.7287 H      1216        0    0.0000
   7300 H         527.4072 -167.9112    1.0205 H      1216        0    0.0000
   7301 H         528.2035 -170.2672    0.7766 H      1216        0    0.0000
   7302 H         528.0430 -170.1661   -0.9733 H      1216        0    0.0000
   7303 C         529.7265 -169.0256   -0.1766 C.3    1217        0    0.0000
   7304 C         530.7734 -170.1440   -0.1284 C.3    1217        0    0.0000
   7305 H         529.8258 -168.4574   -1.1097 H      1217        0    0.0000
   7306 H         529.8954 -168.3167    0.6435 H      1217        0    0.0000
   7307 H         530.6808 -170.7058    0.8094 H      1217        0    0.0000
   7308 H         530.5982 -170.8585   -0.9423 H      1217        0    0.0000
   7309 C         532.2366 -169.5936   -0.2454 C.3    1218        0    0.0000
   7310 C         533.2829 -170.7130   -0.2089 C.3    1218        0    0.0000
   7311 H         532.3267 -169.0247   -1.1791 H      1218        0    0.0000
   7312 H         532.4145 -168.8855    0.5734 H      1218        0    0.0000
   7313 H         533.2784 -171.2001    0.7741 H      1218        0    0.0000
   7314 H         533.0318 -171.4867   -0.9451 H      1218        0    0.0000
   7315 C         534.7288 -170.1845   -0.5045 C.3    1219        0    0.0000
   7316 C         535.7960 -171.2648   -0.2964 C.3    1219        0    0.0000
   7317 H         534.7656 -169.8132   -1.5362 H      1219        0    0.0000
   7318 H         534.9313 -169.3253    0.1469 H      1219        0    0.0000
   7319 H         535.8221 -171.5696    0.7571 H      1219        0    0.0000
   7320 H         535.5430 -172.1604   -0.8773 H      1219        0    0.0000
   7321 C         537.2252 -170.7769   -0.7169 C.3    1220        0    0.0000
   7322 C         538.3112 -171.8067   -0.3864 C.3    1220        0    0.0000
   7323 H         537.2238 -170.5639   -1.7931 H      1220        0    0.0000
   7324 H         537.4389 -169.8285   -0.2084 H      1220        0    0.0000
   7325 H         538.4167 -171.9062    0.7010 H      1220        0    0.0000
   7326 H         538.0212 -172.7942   -0.7665 H      1220        0    0.0000
   7327 C         539.7025 -171.4193   -0.9958 C.3    1221        0    0.0000
   7328 C         540.8652 -172.1103   -0.2748 C.3    1221        0    0.0000
   7329 H         539.7087 -171.6850   -2.0601 H      1221        0    0.0000
   7330 H         539.8209 -170.3300   -0.9423 H      1221        0    0.0000
   7331 H         540.9615 -171.7182    0.7453 H      1221        0    0.0000
   7332 H         540.6646 -173.1848   -0.1817 H      1221        0    0.0000
   7333 C         542.2289 -171.9137   -1.0226 C.3    1222        0    0.0000
   7334 C         543.4321 -172.2463   -0.1333 C.3    1222        0    0.0000
   7335 H         542.2359 -172.5480   -1.9176 H      1222        0    0.0000
   7336 H         542.2945 -170.8757   -1.3714 H      1222        0    0.0000
   7337 H         543.6025 -171.4367    0.5872 H      1222        0    0.0000
   7338 H         543.2283 -173.1514    0.4523 H      1222        0    0.0000
   7339 C         544.7425 -172.4668   -0.9649 C.3    1223        0    0.0000
   7340 C         545.7797 -171.3658   -0.7177 C.3    1223        0    0.0000
   7341 H         545.1646 -173.4460   -0.7067 H      1223        0    0.0000
   7342 H         544.4828 -172.5067   -2.0301 H      1223        0    0.0000
   7343 H         545.3348 -170.3809   -0.9059 H      1223        0    0.0000
   7344 H         546.0936 -171.3740    0.3335 H      1223        0    0.0000
   7345 C         547.0476 -171.5294   -1.6249 C.3    1224        0    0.0000
   7346 C         548.3411 -171.1686   -0.8860 C.3    1224        0    0.0000
   7347 H         547.0952 -172.5654   -1.9826 H      1224        0    0.0000
   7348 H         546.9318 -170.8947   -2.5122 H      1224        0    0.0000
   7349 H         548.5111 -170.0857   -0.9324 H      1224        0    0.0000
   7350 H         548.2524 -171.4284    0.1762 H      1224        0    0.0000
   7351 C         549.5909 -171.9025   -1.4832 C.3    1225        0    0.0000
   7352 C         550.5547 -170.9353   -2.1795 C.3    1225        0    0.0000
   7353 H         550.1092 -172.4330   -0.6748 H      1225        0    0.0000
   7354 H         549.2473 -172.6663   -2.1917 H      1225        0    0.0000
   7355 H         550.0745 -170.4970   -3.0632 H      1225        0    0.0000
   7356 H         550.8013 -170.1024   -1.5094 H      1225        0    0.0000
   7357 C         551.8842 -171.6377   -2.6229 C.3    1226        0    0.0000
   7358 C         552.5976 -170.8754   -3.7450 C.3    1226        0    0.0000
   7359 H         552.5438 -171.7284   -1.7512 H      1226        0    0.0000
   7360 H         551.6523 -172.6589   -2.9502 H      1226        0    0.0000
   7361 H         551.9017 -170.6838   -4.5711 H      1226        0    0.0000
   7362 H         552.9316 -169.8959   -3.3809 H      1226        0    0.0000
   7363 C         553.8374 -171.6580   -4.2998 C.3    1227        0    0.0000
   7364 C         555.0851 -170.7735   -4.4006 C.3    1227        0    0.0000
   7365 H         554.0362 -172.5156   -3.6451 H      1227        0    0.0000
   7366 H         553.5852 -172.0665   -5.2863 H      1227        0    0.0000
   7367 H         554.8997 -169.9384   -5.0875 H      1227        0    0.0000
   7368 H         555.3132 -170.3321   -3.4225 H      1227        0    0.0000
   7369 C         556.3392 -171.5701   -4.9005 C.3    1228        0    0.0000
   7370 C         557.5948 -170.6938   -4.9682 C.3    1228        0    0.0000
   7371 H         556.5095 -172.4199   -4.2279 H      1228        0    0.0000
   7372 H         556.1199 -171.9903   -5.8898 H      1228        0    0.0000
   7373 H         557.4108 -169.8217   -5.6080 H      1228        0    0.0000
   7374 H         557.8380 -170.3071   -3.9708 H      1228        0    0.0000
   7375 C         558.8353 -171.4750   -5.5235 C.3    1229        0    0.0000
   7376 C         559.9512 -170.5351   -5.9929 C.3    1229        0    0.0000
   7377 H         559.2117 -172.1438   -4.7396 H      1229        0    0.0000
   7378 H         558.5082 -172.1144   -6.3528 H      1229        0    0.0000
   7379 H         559.5633 -169.8369   -6.7451 H      1229        0    0.0000
   7380 H         560.3087 -169.9266   -5.1530 H      1229        0    0.0000
   7381 C         561.1657 -171.3142   -6.6055 C.3    1230        0    0.0000
   7382 C         562.3866 -170.4124   -6.8182 C.3    1230        0    0.0000
   7383 H         561.4243 -172.1465   -5.9391 H      1230        0    0.0000
   7384 H         560.8557 -171.7589   -7.5593 H      1230        0    0.0000
   7385 H         562.1354 -169.5952   -7.5056 H      1230        0    0.0000
   7386 H         562.6802 -169.9469   -5.8693 H      1230        0    0.0000
   7387 C         563.6131 -171.1995   -7.3959 C.3    1231        0    0.0000
   7388 C         564.7930 -170.2776   -7.7232 C.3    1231        0    0.0000
   7389 H         563.9206 -171.9596   -6.6670 H      1231        0    0.0000
   7390 H         563.2950 -171.7379   -8.2973 H      1231        0    0.0000
   7391 H         564.4837 -169.5136   -8.4473 H      1231        0    0.0000
   7392 H         565.1152 -169.7440   -6.8205 H      1231        0    0.0000
   7393 C         566.0162 -171.0635   -8.3094 C.3    1232        0    0.0000
   7394 C         567.1187 -170.1276   -8.8170 C.3    1232        0    0.0000
   7395 H         566.4148 -171.7277   -7.5325 H      1232        0    0.0000
   7396 H         565.6647 -171.7078   -9.1248 H      1232        0    0.0000
   7397 H         566.7227 -169.4703   -9.6010 H      1232        0    0.0000
   7398 H         567.4630 -169.4762   -8.0041 H      1232        0    0.0000
   7399 C         568.3481 -170.9135   -9.3898 C.3    1233        0    0.0000
   7400 C         569.4821 -169.9797   -9.8269 C.3    1233        0    0.0000
   7401 H         568.7095 -171.6114   -8.6244 H      1233        0    0.0000
   7402 H         568.0140 -171.5226  -10.2389 H      1233        0    0.0000
   7403 H         569.1137 -169.2640  -10.5724 H      1233        0    0.0000
   7404 H         569.8347 -169.3902   -8.9716 H      1233        0    0.0000
   7405 C         570.6959 -170.7633  -10.4353 C.3    1234        0    0.0000
   7406 C         571.8041 -169.8262  -10.9281 C.3    1234        0    0.0000
   7407 H         571.0923 -171.4472   -9.6746 H      1234        0    0.0000
   7408 H         570.3352 -171.3871  -11.2626 H      1234        0    0.0000
   7409 H         571.4234 -169.1831  -11.7313 H      1234        0    0.0000
   7410 H         572.1227 -169.1608  -10.1162 H      1234        0    0.0000
   7411 C         573.0535 -170.6107  -11.4583 C.3    1235        0    0.0000
   7412 C         574.1730 -169.6734  -11.9244 C.3    1235        0    0.0000
   7413 H         573.4214 -171.2694  -10.6619 H      1235        0    0.0000
   7414 H         572.7386 -171.2605  -12.2843 H      1235        0    0.0000
   7415 H         573.7445 -168.7862  -12.4067 H      1235        0    0.0000
   7416 H         574.7481 -169.3160  -11.0612 H      1235        0    0.0000
   7417 C         575.1524 -170.3717  -12.9298 C.3    1236        0    0.0000
   7418 C         576.2557 -169.4262  -13.4174 C.3    1236        0    0.0000
   7419 H         575.5966 -171.2473  -12.4403 H      1236        0    0.0000
   7420 H         574.5745 -170.7473  -13.7833 H      1236        0    0.0000
   7421 H         576.8675 -169.9237  -14.1801 H      1236        0    0.0000
   7422 H         575.8112 -168.5446  -13.8958 H      1236        0    0.0000
   7423 C         577.1895 -168.9513  -12.2513 C.3    1237        0    0.0000
   7424 C         578.1276 -167.8187  -12.6828 C.3    1237        0    0.0000
   7425 H         576.5660 -168.6236  -11.4102 H      1237        0    0.0000
   7426 H         577.7739 -169.8086  -11.8949 H      1237        0    0.0000
   7427 H         577.7407 -167.3342  -13.5878 H      1237        0    0.0000
   7428 H         578.1676 -167.0464  -11.9046 H      1237        0    0.0000
   7429 C         579.5832 -168.3277  -12.9649 C.3    1238        0    0.0000
   7430 C         580.2281 -167.6118  -14.1568 C.3    1238        0    0.0000
   7431 H         580.1906 -168.1793  -12.0634 H      1238        0    0.0000
   7432 H         579.5504 -169.4088  -13.1483 H      1238        0    0.0000
   7433 H         579.8245 -168.0079  -15.0968 H      1238        0    0.0000
   7434 H         579.9802 -166.5434  -14.1329 H      1238        0    0.0000
   7435 C         581.7878 -167.7683  -14.1709 C.3    1239        0    0.0000
   7436 C         582.4232 -167.1431  -15.4177 C.3    1239        0    0.0000
   7437 H         582.1981 -167.3029  -13.2661 H      1239        0    0.0000
   7438 H         582.0366 -168.8354  -14.1168 H      1239        0    0.0000
   7439 H         582.2617 -167.7917  -16.2876 H      1239        0    0.0000
   7440 H         581.9404 -166.1846  -15.6454 H      1239        0    0.0000
   7441 C         583.9628 -166.9047  -15.2440 C.3    1240        0    0.0000
   7442 C         584.6123 -166.3517  -16.5174 C.3    1240        0    0.0000
   7443 H         584.1212 -166.2108  -14.4092 H      1240        0    0.0000
   7444 H         584.4376 -167.8522  -14.9605 H      1240        0    0.0000
   7445 H         584.8568 -167.1733  -17.2021 H      1240        0    0.0000
   7446 H         583.9066 -165.6997  -17.0469 H      1240        0    0.0000
   7447 C         585.9192 -165.5410  -16.2138 C.3    1241        0    0.0000
   7448 C         586.7498 -165.2840  -17.4761 C.3    1241        0    0.0000
   7449 H         585.6434 -164.5885  -15.7446 H      1241        0    0.0000
   7450 H         586.5154 -166.0940  -15.4774 H      1241        0    0.0000
   7451 H         586.1033 -165.3037  -18.3622 H      1241        0    0.0000
   7452 H         587.1970 -164.2831  -17.4347 H      1241        0    0.0000
   7453 C         587.8926 -166.3409  -17.6607 C.3    1242        0    0.0000
   7454 C         588.9860 -165.8529  -18.6175 C.3    1242        0    0.0000
   7455 H         588.3259 -166.5683  -16.6789 H      1242        0    0.0000
   7456 H         587.4540 -167.2741  -18.0353 H      1242        0    0.0000
   7457 H         588.9100 -164.7669  -18.7531 H      1242        0    0.0000
   7458 H         589.9764 -166.0481  -18.1878 H      1242        0    0.0000
   7459 C         588.8991 -166.5448  -20.0214 C.3    1243        0    0.0000
   7460 C         589.9177 -165.9739  -21.0144 C.3    1243        0    0.0000
   7461 H         589.0603 -167.6225  -19.8952 H      1243        0    0.0000
   7462 H         587.8820 -166.4221  -20.4137 H      1243        0    0.0000
   7463 H         589.8810 -166.5360  -21.9558 H      1243        0    0.0000
   7464 H         589.6639 -164.9347  -21.2578 H      1243        0    0.0000
   7465 C         591.3817 -166.0191  -20.4556 C.3    1244        0    0.0000
   7466 C         592.2539 -164.8923  -21.0200 C.3    1244        0    0.0000
   7467 H         591.3445 -165.9537  -19.3611 H      1244        0    0.0000
   7468 H         591.8229 -166.9937  -20.6982 H      1244        0    0.0000
   7469 H         591.6208 -164.1024  -21.4428 H      1244        0    0.0000
   7470 H         592.8386 -164.4301  -20.2149 H      1244        0    0.0000
   7471 C         593.2366 -165.4009  -22.1304 C.3    1245        0    0.0000
   7472 C         594.1517 -164.2870  -22.6508 C.3    1245        0    0.0000
   7473 H         593.8385 -166.2217  -21.7209 H      1245        0    0.0000
   7474 H         592.6497 -165.8221  -22.9560 H      1245        0    0.0000
   7475 H         593.5508 -163.4330  -22.9872 H      1245        0    0.0000
   7476 H         594.7952 -163.9201  -21.8416 H      1245        0    0.0000
   7477 C         595.0563 -164.7672  -23.8377 C.3    1246        0    0.0000
   7478 C         595.9734 -163.6540  -24.3562 C.3    1246        0    0.0000
   7479 H         595.6557 -165.6224  -23.5018 H      1246        0    0.0000
   7480 H         594.4127 -165.1320  -24.6477 H      1246        0    0.0000
   7481 H         595.8576 -163.5463  -25.4418 H      1246        0    0.0000
   7482 H         595.6866 -162.6927  -23.9120 H      1246        0    0.0000
   7483 C         597.4827 -163.9292  -24.0338 C.3    1247        0    0.0000
   7484 C         598.4225 -163.0183  -24.8313 C.3    1247        0    0.0000
   7485 H         597.6458 -163.7886  -22.9581 H      1247        0    0.0000
   7486 H         597.7045 -164.9814  -24.2512 H      1247        0    0.0000
   7487 H         598.1185 -162.9944  -25.8851 H      1247        0    0.0000
   7488 H         598.3529 -161.9884  -24.4599 H      1247        0    0.0000
   7489 C         599.9164 -163.4861  -24.7469 C.3    1248        0    0.0000
   7490 C         600.8800 -162.4667  -25.3645 C.3    1248        0    0.0000
   7491 H         600.1743 -163.6578  -23.6945 H      1248        0    0.0000
   7492 H         600.0136 -164.4525  -25.2568 H      1248        0    0.0000
   7493 H         600.4028 -161.4800  -25.4139 H      1248        0    0.0000
   7494 H         601.7679 -162.3558  -24.7297 H      1248        0    0.0000
   7495 C         601.3378 -162.8793  -26.8058 C.3    1249        0    0.0000
   7496 C         601.9537 -161.7070  -27.5775 C.3    1249        0    0.0000
   7497 H         602.0624 -163.6990  -26.7256 H      1249        0    0.0000
   7498 H         600.4727 -163.2759  -27.3517 H      1249        0    0.0000
   7499 H         601.6637 -161.7585  -28.6343 H      1249        0    0.0000
   7500 H         601.5660 -160.7566  -27.1904 H      1249        0    0.0000
   7501 C         603.5185 -161.6904  -27.4833 C.3    1250        0    0.0000
   7502 C         604.1633 -160.9474  -28.6586 C.3    1250        0    0.0000
   7503 H         603.8107 -161.2211  -26.5358 H      1250        0    0.0000
   7504 H         603.8815 -162.7250  -27.4476 H      1250        0    0.0000
   7505 H         603.5670 -161.0924  -29.5679 H      1250        0    0.0000
   7506 H         604.1771 -159.8686  -28.4596 H      1250        0    0.0000
   7507 C         605.6295 -161.4293  -28.9336 C.3    1251        0    0.0000
   7508 C         606.4475 -160.3887  -29.7064 C.3    1251        0    0.0000
   7509 H         606.1141 -161.6523  -27.9750 H      1251        0    0.0000
   7510 H         605.5927 -162.3712  -29.4947 H      1251        0    0.0000
   7511 H         606.3582 -160.5659  -30.7854 H      1251        0    0.0000
   7512 H         606.0511 -159.3833  -29.5183 H      1251        0    0.0000
   7513 C         607.9650 -160.4152  -29.3139 C.3    1252        0    0.0000
   7514 C         608.8605 -159.8418  -30.4177 C.3    1252        0    0.0000
   7515 H         608.1002 -159.8457  -28.3861 H      1252        0    0.0000
   7516 H         608.2554 -161.4499  -29.0936 H      1252        0    0.0000
   7517 H         609.9135 -160.0572  -30.1976 H      1252        0    0.0000
   7518 H         608.6335 -160.3259  -31.3757 H      1252        0    0.0000
   7519 C         608.6849 -158.2925  -30.5803 C.3    1253        0    0.0000
   7520 C         609.6351 -157.7074  -31.6309 C.3    1253        0    0.0000
   7521 H         607.6441 -158.0815  -30.8554 H      1253        0    0.0000
   7522 H         608.8573 -157.8132  -29.6086 H      1253        0    0.0000
   7523 H         609.0681 -157.1273  -32.3695 H      1253        0    0.0000
   7524 H         610.3383 -157.0117  -31.1563 H      1253        0    0.0000
   7525 C         610.4504 -158.8181  -32.3787 C.3    1254        0    0.0000
   7526 C         611.5219 -158.2291  -33.3031 C.3    1254        0    0.0000
   7527 H         610.9160 -159.4764  -31.6348 H      1254        0    0.0000
   7528 H         609.7546 -159.4386  -32.9570 H      1254        0    0.0000
   7529 H         611.5367 -158.7725  -34.2559 H      1254        0    0.0000
   7530 H         611.2821 -157.1851  -33.5394 H      1254        0    0.0000
   7531 C         612.9531 -158.2871  -32.6661 C.3    1255        0    0.0000
   7532 C         613.9409 -157.3508  -33.3708 C.3    1255        0    0.0000
   7533 H         612.8782 -158.0241  -31.6036 H      1255        0    0.0000
   7534 H         613.3181 -159.3207  -32.7099 H      1255        0    0.0000
   7535 H         613.3960 -156.6181  -33.9790 H      1255        0    0.0000
   7536 H         614.5135 -156.7807  -32.6288 H      1255        0    0.0000
   7537 C         614.9420 -158.1284  -34.2931 C.3    1256        0    0.0000
   7538 C         615.8906 -157.1874  -35.0441 C.3    1256        0    0.0000
   7539 H         615.5180 -158.8302  -33.6772 H      1256        0    0.0000
   7540 H         614.3687 -158.7328  -35.0068 H      1256        0    0.0000
   7541 H         615.3574 -156.6927  -35.8653 H      1256        0    0.0000
   7542 H         616.2421 -156.3937  -34.3733 H      1256        0    0.0000
   7543 C         617.1339 -157.9410  -35.6304 C.3    1257        0    0.0000
   7544 C         617.8431 -157.1308  -36.7212 C.3    1257        0    0.0000
   7545 H         617.8312 -158.1621  -34.8128 H      1257        0    0.0000
   7546 H         616.8044 -158.9067  -36.0333 H      1257        0    0.0000
   7547 H         618.1204 -157.7861  -37.5562 H      1257        0    0.0000
   7548 H         617.1630 -156.3723  -37.1284 H      1257        0    0.0000
   7549 C         619.1335 -156.4184  -36.1878 C.3    1258        0    0.0000
   7550 C         619.5145 -155.1977  -37.0329 C.3    1258        0    0.0000
   7551 H         618.9664 -156.1173  -35.1462 H      1258        0    0.0000
   7552 H         619.9585 -157.1415  -36.1784 H      1258        0    0.0000
   7553 H         618.6448 -154.8491  -37.6035 H      1258        0    0.0000
   7554 H         619.8168 -154.3686  -36.3812 H      1258        0    0.0000
   7555 C         620.6827 -155.5074  -38.0313 C.3    1259        0    0.0000
   7556 C         620.9513 -154.3425  -38.9904 C.3    1259        0    0.0000
   7557 H         621.5880 -155.7374  -37.4559 H      1259        0    0.0000
   7558 H         620.4321 -156.4120  -38.5992 H      1259        0    0.0000
   7559 H         620.0175 -153.8074  -39.2030 H      1259        0    0.0000
   7560 H         621.6297 -153.6185  -38.5222 H      1259        0    0.0000
   7561 C         621.5792 -154.8207  -40.3448 C.3    1260        0    0.0000
   7562 C         622.8979 -154.1053  -40.6584 C.3    1260        0    0.0000
   7563 H         621.7416 -155.9046  -40.2961 H      1260        0    0.0000
   7564 H         620.8558 -154.6464  -41.1510 H      1260        0    0.0000
   7565 H         623.5322 -154.0766  -39.7638 H      1260        0    0.0000
   7566 H         623.4553 -154.6618  -41.4221 H      1260        0    0.0000
   7567 C         622.6725 -152.6391  -41.1653 C.3    1261        0    0.0000
   7568 C         623.9921 -151.9160  -41.4567 C.3    1261        0    0.0000
   7569 H         622.0522 -152.6690  -42.0697 H      1261        0    0.0000
   7570 H         622.1003 -152.0875  -40.4090 H      1261        0    0.0000
   7571 H         623.7961 -150.9717  -41.9794 H      1261        0    0.0000
   7572 H         624.4949 -151.6573  -40.5165 H      1261        0    0.0000
   7573 C         624.9650 -152.7833  -42.3279 C.3    1262        0    0.0000
   7574 C         626.3328 -152.1160  -42.5101 C.3    1262        0    0.0000
   7575 H         625.0855 -153.7647  -41.8526 H      1262        0    0.0000
   7576 H         624.5003 -152.9617  -43.3055 H      1262        0    0.0000
   7577 H         626.2034 -151.0735  -42.8262 H      1262        0    0.0000
   7578 H         626.8694 -152.0910  -41.5536 H      1262        0    0.0000
   7579 C         627.2198 -152.8587  -43.5679 C.3    1263        0    0.0000
   7580 C         628.3259 -151.9601  -44.1320 C.3    1263        0    0.0000
   7581 H         627.6599 -153.7475  -43.0989 H      1263        0    0.0000
   7582 H         626.5757 -153.2173  -44.3803 H      1263        0    0.0000
   7583 H         628.3589 -152.0454  -45.2252 H      1263        0    0.0000
   7584 H         628.1094 -150.9089  -43.9044 H      1263        0    0.0000
   7585 C         629.7376 -152.3217  -43.5542 C.3    1264        0    0.0000
   7586 C         630.8304 -151.3694  -44.0522 C.3    1264        0    0.0000
   7587 H         629.6880 -152.2972  -42.4586 H      1264        0    0.0000
   7588 H         629.9811 -153.3537  -43.8356 H      1264        0    0.0000
   7589 H         630.6359 -150.3519  -43.6910 H      1264        0    0.0000
   7590 H         631.8040 -151.6679  -43.6441 H      1264        0    0.0000
   7591 C         630.9255 -151.3406  -45.6166 C.3    1265        0    0.0000
   7592 C         632.1396 -150.5458  -46.1102 C.3    1265        0    0.0000
   7593 H         630.9754 -152.3721  -45.9869 H      1265        0    0.0000
   7594 H         630.0023 -150.9057  -46.0191 H      1265        0    0.0000
   7595 H         632.0059 -149.4795  -45.8899 H      1265        0    0.0000
   7596 H         633.0421 -150.8672  -45.5758 H      1265        0    0.0000
   7597 C         632.3762 -150.7179  -47.6503 C.3    1266        0    0.0000
   7598 C         633.7102 -150.1147  -48.1040 C.3    1266        0    0.0000
   7599 H         632.3437 -151.7866  -47.8959 H      1266        0    0.0000
   7600 H         631.5466 -150.2451  -48.1905 H      1266        0    0.0000
   7601 H         634.4290 -150.1253  -47.2753 H      1266        0    0.0000
   7602 H         634.1450 -150.7239  -48.9061 H      1266        0    0.0000
   7603 C         633.5523 -148.6419  -48.6172 C.3    1267        0    0.0000
   7604 C         634.8230 -147.8123  -48.4016 C.3    1267        0    0.0000
   7605 H         633.2942 -148.6646  -49.6831 H      1267        0    0.0000
   7606 H         632.7060 -148.1753  -48.0979 H      1267        0    0.0000
   7607 H         634.8022 -146.9198  -49.0392 H      1267        0    0.0000
   7608 H         634.8692 -147.4576  -47.3645 H      1267        0    0.0000
   7609 C         636.1249 -148.6273  -48.7154 C.3    1268        0    0.0000
   7610 C         637.3916 -147.7764  -48.5717 C.3    1268        0    0.0000
   7611 H         636.1730 -149.4905  -48.0400 H      1268        0    0.0000
   7612 H         636.0544 -149.0278  -49.7342 H      1268        0    0.0000
   7613 H         637.1887 -146.9039  -47.9384 H      1268        0    0.0000
   7614 H         638.1778 -148.3540  -48.0698 H      1268        0    0.0000
   7615 C         637.9344 -147.2807  -49.9562 C.3    1269        0    0.0000
   7616 C         639.3281 -146.6531  -49.8428 C.3    1269        0    0.0000
   7617 H         637.9597 -148.1297  -50.6506 H      1269        0    0.0000
   7618 H         637.2271 -146.5533  -50.3735 H      1269        0    0.0000
   7619 H         639.3809 -146.0123  -48.9539 H      1269        0    0.0000
   7620 H         640.0842 -147.4370  -49.7113 H      1269        0    0.0000
   7621 C         639.6996 -145.7992  -51.1039 C.3    1270        0    0.0000
   7622 C         641.2134 -145.6092  -51.2514 C.3    1270        0    0.0000
   7623 H         639.2938 -146.2915  -51.9964 H      1270        0    0.0000
   7624 H         639.2036 -144.8236  -51.0291 H      1270        0    0.0000
   7625 H         641.5917 -144.9658  -50.4473 H      1270        0    0.0000
   7626 H         641.7252 -146.5742  -51.1499 H      1270        0    0.0000
   7627 C         641.6009 -144.9742  -52.6313 C.3    1271        0    0.0000
   7628 C         643.1127 -144.7639  -52.7698 C.3    1271        0    0.0000
   7629 H         641.2366 -145.6259  -53.4352 H      1271        0    0.0000
   7630 H         641.0764 -144.0168  -52.7397 H      1271        0    0.0000
   7631 H         643.5570 -144.5689  -51.7859 H      1271        0    0.0000
   7632 H         643.5858 -145.6761  -53.1540 H      1271        0    0.0000
   7633 C         643.4615 -143.5723  -53.7269 C.3    1272        0    0.0000
   7634 C         644.9692 -143.4464  -53.9722 C.3    1272        0    0.0000
   7635 H         642.9363 -143.7181  -54.6790 H      1272        0    0.0000
   7636 H         643.0724 -142.6435  -53.2915 H      1272        0    0.0000
   7637 H         645.2690 -142.3917  -53.9380 H      1272        0    0.0000
   7638 H         645.5238 -143.9577  -53.1757 H      1272        0    0.0000
   7639 C         645.3987 -144.0493  -55.3541 C.3    1273        0    0.0000
   7640 C         646.7570 -143.5165  -55.8233 C.3    1273        0    0.0000
   7641 H         645.4329 -145.1424  -55.2677 H      1273        0    0.0000
   7642 H         644.6260 -143.8160  -56.0971 H      1273        0    0.0000
   7643 H         646.7083 -143.2457  -56.8853 H      1273        0    0.0000
   7644 H         647.0111 -142.6004  -55.2760 H      1273        0    0.0000
   7645 C         647.9075 -144.5618  -55.6205 C.3    1274        0    0.0000
   7646 C         649.2971 -143.9242  -55.7279 C.3    1274        0    0.0000
   7647 H         647.7858 -145.0355  -54.6385 H      1274        0    0.0000
   7648 H         647.7993 -145.3564  -56.3692 H      1274        0    0.0000
   7649 H         649.7071 -143.7452  -54.7262 H      1274        0    0.0000
   7650 H         649.9879 -144.6106  -56.2331 H      1274        0    0.0000
   7651 C         649.2692 -142.5673  -56.5124 C.3    1275        0    0.0000
   7652 C         650.6608 -141.9360  -56.6307 C.3    1275        0    0.0000
   7653 H         648.8505 -142.7446  -57.5107 H      1275        0    0.0000
   7654 H         648.5854 -141.8777  -56.0019 H      1275        0    0.0000
   7655 H         650.7997 -141.1819  -55.8461 H      1275        0    0.0000
   7656 H         651.4342 -142.6984  -56.4755 H      1275        0    0.0000
   7657 C         650.8901 -141.2607  -58.0268 C.3    1276        0    0.0000
   7658 C         652.2781 -140.6210  -58.1416 C.3    1276        0    0.0000
   7659 H         650.7582 -142.0165  -58.8110 H      1276        0    0.0000
   7660 H         650.1125 -140.5032  -58.1852 H      1276        0    0.0000
   7661 H         652.1868 -139.5839  -58.4874 H      1276        0    0.0000
   7662 H         652.7578 -140.5834  -57.1556 H      1276        0    0.0000
   7663 C         653.2125 -141.4023  -59.1285 C.3    1277        0    0.0000
   7664 C         654.4304 -140.5745  -59.5535 C.3    1277        0    0.0000
   7665 H         653.5393 -142.3314  -58.6452 H      1277        0    0.0000
   7666 H         652.6296 -141.6943  -60.0109 H      1277        0    0.0000
   7667 H         654.2329 -139.5068  -59.3965 H      1277        0    0.0000
   7668 H         655.2954 -140.8300  -58.9289 H      1277        0    0.0000
   7669 C         654.8083 -140.8027  -61.0576 C.3    1278        0    0.0000
   7670 C         656.0806 -140.0477  -61.4579 C.3    1278        0    0.0000
   7671 H         654.9390 -141.8782  -61.2301 H      1278        0    0.0000
   7672 H         653.9677 -140.4828  -61.6858 H      1278        0    0.0000
   7673 H         655.9119 -138.9656  -61.3936 H      1278        0    0.0000
   7674 H         656.8928 -140.2821  -60.7587 H      1278        0    0.0000
   7675 C         656.5483 -140.4007  -62.9120 C.3    1279        0    0.0000
   7676 C         657.8696 -139.7163  -63.2794 C.3    1279        0    0.0000
   7677 H         656.6528 -141.4895  -62.9953 H      1279        0    0.0000
   7678 H         655.7624 -140.1047  -63.6178 H      1279        0    0.0000
   7679 H         658.6534 -140.4687  -63.4310 H      1279        0    0.0000
   7680 H         657.7627 -139.1770  -64.2288 H      1279        0    0.0000
   7681 C         658.3434 -138.7082  -62.1763 C.3    1280        0    0.0000
   7682 C         659.6174 -137.9592  -62.5825 C.3    1280        0    0.0000
   7683 H         657.5342 -137.9943  -61.9786 H      1280        0    0.0000
   7684 H         658.5124 -139.2592  -61.2428 H      1280        0    0.0000
   7685 H         660.4586 -138.6596  -62.6549 H      1280        0    0.0000
   7686 H         659.4913 -137.5145  -63.5774 H      1280        0    0.0000
   7687 C         659.9899 -136.8257  -61.5658 C.3    1281        0    0.0000
   7688 C         661.0916 -135.9042  -62.1010 C.3    1281        0    0.0000
   7689 H         659.0884 -136.2426  -61.3404 H      1281        0    0.0000
   7690 H         660.3104 -137.2871  -60.6235 H      1281        0    0.0000
   7691 H         660.6790 -135.2240  -62.8564 H      1281        0    0.0000
   7692 H         661.4826 -135.2758  -61.2913 H      1281        0    0.0000
   7693 C         662.2792 -136.7055  -62.7373 C.3    1282        0    0.0000
   7694 C         663.0109 -135.9002  -63.8168 C.3    1282        0    0.0000
   7695 H         662.9789 -136.9915  -61.9423 H      1282        0    0.0000
   7696 H         661.8885 -137.6378  -63.1636 H      1282        0    0.0000
   7697 H         662.3177 -135.6395  -64.6263 H      1282        0    0.0000
   7698 H         663.3758 -134.9543  -63.3978 H      1282        0    0.0000
   7699 C         664.2242 -136.6855  -64.4238 C.3    1283        0    0.0000
   7700 C         665.0946 -135.8033  -65.3256 C.3    1283        0    0.0000
   7701 H         664.8267 -137.0946  -63.6033 H      1283        0    0.0000
   7702 H         663.8421 -137.5426  -64.9918 H      1283        0    0.0000
   7703 H         664.5422 -135.5338  -66.2343 H      1283        0    0.0000
   7704 H         665.3356 -134.8636  -64.8131 H      1283        0    0.0000
   7705 C         666.4312 -136.5112  -65.7379 C.3    1284        0    0.0000
   7706 C         667.3803 -135.5692  -66.4868 C.3    1284        0    0.0000
   7707 H         666.9198 -136.8976  -64.8349 H      1284        0    0.0000
   7708 H         666.1926 -137.3802  -66.3635 H      1284        0    0.0000
   7709 H         668.1490 -136.1494  -67.0121 H      1284        0    0.0000
   7710 H         666.8287 -135.0106  -67.2531 H      1284        0    0.0000
   7711 C         668.0847 -134.5494  -65.5271 C.3    1285        0    0.0000
   7712 C         668.6951 -133.3651  -66.2847 C.3    1285        0    0.0000
   7713 H         667.3521 -134.1896  -64.7941 H      1285        0    0.0000
   7714 H         668.8636 -135.0759  -64.9616 H      1285        0    0.0000
   7715 H         668.1498 -133.1967  -67.2217 H      1285        0    0.0000
   7716 H         668.5942 -132.4473  -65.6922 H      1285        0    0.0000
   7717 C         670.2110 -133.5890  -66.6154 C.3    1286        0    0.0000
   7718 C         670.6673 -132.7729  -67.8299 C.3    1286        0    0.0000
   7719 H         670.8084 -133.3199  -65.7355 H      1286        0    0.0000
   7720 H         670.3795 -134.6580  -66.7957 H      1286        0    0.0000
   7721 H         670.4738 -133.3327  -68.7534 H      1286        0    0.0000
   7722 H         670.0883 -131.8436  -67.8976 H      1286        0    0.0000
   7723 C         672.1921 -132.4149  -67.7662 C.3    1287        0    0.0000
   7724 C         672.7373 -131.9522  -69.1219 C.3    1287        0    0.0000
   7725 H         672.3401 -131.6303  -67.0137 H      1287        0    0.0000
   7726 H         672.7477 -133.2943  -67.4177 H      1287        0    0.0000
   7727 H         672.5584 -132.7227  -69.8820 H      1287        0    0.0000
   7728 H         672.2049 -131.0523  -69.4541 H      1287        0    0.0000
   7729 C         674.2727 -131.6406  -69.0699 C.3    1288        0    0.0000
   7730 C         674.7145 -130.7064  -70.2018 C.3    1288        0    0.0000
   7731 H         674.5096 -131.1915  -68.0974 H      1288        0    0.0000
   7732 H         674.8274 -132.5856  -69.1239 H      1288        0    0.0000
   7733 H         673.8383 -130.2371  -70.6658 H      1288        0    0.0000
   7734 H         675.3312 -129.8933  -69.7993 H      1288        0    0.0000
   7735 C         675.5303 -131.4589  -71.3090 C.3    1289        0    0.0000
   7736 C         676.3135 -130.4963  -72.2085 C.3    1289        0    0.0000
   7737 H         676.2172 -132.1638  -70.8244 H      1289        0    0.0000
   7738 H         674.8376 -132.0584  -71.9125 H      1289        0    0.0000
   7739 H         676.4310 -130.9287  -73.2098 H      1289        0    0.0000
   7740 H         675.7557 -129.5600  -72.3331 H      1289        0    0.0000
   7741 C         677.7330 -130.1659  -71.6311 C.3    1290        0    0.0000
   7742 C         678.6736 -129.5905  -72.6957 C.3    1290        0    0.0000
   7743 H         677.6213 -129.4543  -70.8037 H      1290        0    0.0000
   7744 H         678.1628 -131.0805  -71.2042 H      1290        0    0.0000
   7745 H         678.3876 -129.9587  -73.6889 H      1290        0    0.0000
   7746 H         678.5828 -128.4977  -72.7268 H      1290        0    0.0000
   7747 C         680.1722 -129.9658  -72.4299 C.3    1291        0    0.0000
   7748 C         681.1384 -129.1430  -73.2893 C.3    1291        0    0.0000
   7749 H         680.3917 -129.8129  -71.3660 H      1291        0    0.0000
   7750 H         680.3094 -131.0358  -72.6293 H      1291        0    0.0000
   7751 H         681.5974 -128.3505  -72.6853 H      1291        0    0.0000
   7752 H         681.9567 -129.7789  -73.6490 H      1291        0    0.0000
   7753 C         680.4264 -128.4894  -74.5236 C.3    1292        0    0.0000
   7754 C         681.3055 -127.4400  -75.2128 C.3    1292        0    0.0000
   7755 H         680.1560 -129.2795  -75.2351 H      1292        0    0.0000
   7756 H         679.4871 -128.0321  -74.1888 H      1292        0    0.0000
   7757 H         680.8165 -127.0812  -76.1269 H      1292        0    0.0000
   7758 H         681.4317 -126.5675  -74.5597 H      1292        0    0.0000
   7759 C         682.7210 -128.0021  -75.5842 C.3    1293        0    0.0000
   7760 C         683.6346 -126.9264  -76.1819 C.3    1293        0    0.0000
   7761 H         683.1802 -128.4274  -74.6832 H      1293        0    0.0000
   7762 H         682.5980 -128.8285  -76.2951 H      1293        0    0.0000
   7763 H         683.6114 -126.9794  -77.2774 H      1293        0    0.0000
   7764 H         683.2709 -125.9286  -75.9069 H      1293        0    0.0000
   7765 C         685.1193 -127.0733  -75.7004 C.3    1294        0    0.0000
   7766 C         686.0255 -125.9753  -76.2682 C.3    1294        0    0.0000
   7767 H         685.1395 -127.0479  -74.6038 H      1294        0    0.0000
   7768 H         685.4919 -128.0607  -75.9995 H      1294        0    0.0000
   7769 H         685.4211 -125.1184  -76.5909 H      1294        0    0.0000
   7770 H         686.7038 -125.6069  -75.4888 H      1294        0    0.0000
   7771 C         686.8781 -126.4785  -77.4837 C.3    1295        0    0.0000
   7772 C         687.6149 -125.3347  -78.1894 C.3    1295        0    0.0000
   7773 H         687.5977 -127.2252  -77.1259 H      1295        0    0.0000
   7774 H         686.2161 -126.9927  -78.1914 H      1295        0    0.0000
   7775 H         687.4790 -125.4131  -79.2752 H      1295        0    0.0000
   7776 H         687.1889 -124.3699  -77.8875 H      1295        0    0.0000
   7777 C         689.1499 -125.3310  -77.8713 C.3    1296        0    0.0000
   7778 C         689.9102 -124.2820  -78.6901 C.3    1296        0    0.0000
   7779 H         689.2884 -125.1441  -76.7992 H      1296        0    0.0000
   7780 H         689.5549 -126.3306  -78.0717 H      1296        0    0.0000
   7781 H         689.5030 -124.2314  -79.7075 H      1296        0    0.0000
   7782 H         689.7744 -123.2878  -78.2467 H      1296        0    0.0000
   7783 C         691.4446 -124.5921  -78.7747 C.3    1297        0    0.0000
   7784 C         692.2711 -123.3468  -79.1143 C.3    1297        0    0.0000
   7785 H         691.7738 -125.0122  -77.8162 H      1297        0    0.0000
   7786 H         691.6070 -125.3693  -79.5317 H      1297        0    0.0000
   7787 H         691.6993 -122.4404  -78.8794 H      1297        0    0.0000
   7788 H         693.1771 -123.3167  -78.4965 H      1297        0    0.0000
   7789 C         692.6878 -123.3041  -80.6248 C.3    1298        0    0.0000
   7790 C         693.6359 -122.1399  -80.9332 C.3    1298        0    0.0000
   7791 H         693.1642 -124.2568  -80.8873 H      1298        0    0.0000
   7792 H         691.7825 -123.2248  -81.2394 H      1298        0    0.0000
   7793 H         693.2507 -121.5547  -81.7773 H      1298        0    0.0000
   7794 H         693.6868 -121.4588  -80.0747 H      1298        0    0.0000
   7795 C         695.0851 -122.6289  -81.2769 C.3    1299        0    0.0000
   7796 C         695.9713 -121.4947  -81.8034 C.3    1299        0    0.0000
   7797 H         695.5325 -123.0690  -80.3770 H      1299        0    0.0000
   7798 H         695.0200 -123.4321  -82.0214 H      1299        0    0.0000
   7799 H         695.3512 -120.7161  -82.2647 H      1299        0    0.0000
   7800 H         696.5071 -121.0194  -80.9724 H      1299        0    0.0000
   7801 C         697.0171 -121.9981  -82.8571 C.3    1300        0    0.0000
   7802 C         698.3062 -121.1692  -82.8380 C.3    1300        0    0.0000
   7803 H         697.2446 -123.0519  -82.6540 H      1300        0    0.0000
   7804 H         696.5606 -121.9609  -83.8540 H      1300        0    0.0000
   7805 H         698.5391 -120.8595  -81.8116 H      1300        0    0.0000
   7806 H         699.1506 -121.7790  -83.1824 H      1300        0    0.0000
   7807 C         698.2043 -119.8915  -83.7404 C.3    1301        0    0.0000
   7808 C         699.5709 -119.2413  -83.9831 C.3    1301        0    0.0000
   7809 H         697.7451 -120.1699  -84.6971 H      1301        0    0.0000
   7810 H         697.5259 -119.1740  -83.2623 H      1301        0    0.0000
   7811 H         700.2171 -119.9239  -84.5487 H      1301        0    0.0000
   7812 H         699.4544 -118.3381  -84.5949 H      1301        0    0.0000
   7813 C         700.2914 -118.8557  -82.6453 C.3    1302        0    0.0000
   7814 C         701.6750 -118.2424  -82.8865 C.3    1302        0    0.0000
   7815 H         699.6582 -118.1501  -82.0932 H      1302        0    0.0000
   7816 H         700.3813 -119.7532  -82.0208 H      1302        0    0.0000
   7817 H         701.6381 -117.5555  -83.7411 H      1302        0    0.0000
   7818 H         701.9795 -117.6471  -82.0168 H      1302        0    0.0000
   7819 C         702.7682 -119.3319  -83.1608 C.3    1303        0    0.0000
   7820 C         703.9904 -118.7587  -83.8869 C.3    1303        0    0.0000
   7821 H         703.0727 -119.7759  -82.2050 H      1303        0    0.0000
   7822 H         702.3220 -120.1389  -83.7551 H      1303        0    0.0000
   7823 H         704.4645 -117.9842  -83.2712 H      1303        0    0.0000
   7824 H         704.7408 -119.5444  -84.0379 H      1303        0    0.0000
   7825 C         703.6187 -118.1405  -85.2787 C.3    1304        0    0.0000
   7826 C         704.7493 -117.2794  -85.8524 C.3    1304        0    0.0000
   7827 H         703.3757 -118.9541  -85.9735 H      1304        0    0.0000
   7828 H         702.7077 -117.5394  -85.1668 H      1304        0    0.0000
   7829 H         704.3318 -116.4098  -86.3748 H      1304        0    0.0000
   7830 H         705.3742 -116.8888  -85.0397 H      1304        0    0.0000
   7831 C         705.6580 -118.0789  -86.8487 C.3    1305        0    0.0000
   7832 C         706.9441 -117.3217  -87.1974 C.3    1305        0    0.0000
   7833 H         705.9028 -119.0505  -86.4021 H      1305        0    0.0000
   7834 H         705.0848 -118.2870  -87.7608 H      1305        0    0.0000
   7835 H         707.7949 -117.7575  -86.6590 H      1305        0    0.0000
   7836 H         707.1626 -117.4242  -88.2676 H      1305        0    0.0000
   7837 C         706.8502 -115.7972  -86.8446 C.3    1306        0    0.0000
   7838 C         708.1656 -115.0572  -87.1112 C.3    1306        0    0.0000
   7839 H         706.0400 -115.3476  -87.4319 H      1306        0    0.0000
   7840 H         706.5684 -115.6951  -85.7893 H      1306        0    0.0000
   7841 H         708.8096 -115.6584  -87.7650 H      1306        0    0.0000
   7842 H         707.9677 -114.1174  -87.6416 H      1306        0    0.0000
   7843 C         708.9455 -114.7369  -85.7896 C.3    1307        0    0.0000
   7844 C         710.2855 -114.0434  -86.0593 C.3    1307        0    0.0000
   7845 H         708.3160 -114.1038  -85.1522 H      1307        0    0.0000
   7846 H         709.1099 -115.6723  -85.2404 H      1307        0    0.0000
   7847 H         710.2793 -113.5885  -87.0577 H      1307        0    0.0000
   7848 H         710.4377 -113.2273  -85.3422 H      1307        0    0.0000
   7849 C         711.4969 -115.0336  -85.9627 C.3    1308        0    0.0000
   7850 C         712.5779 -114.7326  -87.0067 C.3    1308        0    0.0000
   7851 H         711.9222 -114.9745  -84.9532 H      1308        0    0.0000
   7852 H         711.1268 -116.0586  -86.0892 H      1308        0    0.0000
   7853 H         713.4971 -115.2806  -86.7651 H      1308        0    0.0000
   7854 H         712.2537 -115.0814  -87.9950 H      1308        0    0.0000
   7855 C         712.9097 -113.2031  -87.0944 C.3    1309        0    0.0000
   7856 C         713.6184 -112.8365  -88.4031 C.3    1309        0    0.0000
   7857 H         711.9774 -112.6329  -86.9991 H      1309        0    0.0000
   7858 H         713.5366 -112.9275  -86.2372 H      1309        0    0.0000
   7859 H         713.5367 -113.6634  -89.1195 H      1309        0    0.0000
   7860 H         713.1300 -111.9697  -88.8653 H      1309        0    0.0000
   7861 C         715.1351 -112.5051  -88.1848 C.3    1310        0    0.0000
   7862 C         715.8104 -112.0039  -89.4660 C.3    1310        0    0.0000
   7863 H         715.2217 -111.7500  -87.3937 H      1310        0    0.0000
   7864 H         715.6444 -113.4051  -87.8184 H      1310        0    0.0000
   7865 H         715.8455 -112.8077  -90.2119 H      1310        0    0.0000
   7866 H         715.2224 -111.1899  -89.9076 H      1310        0    0.0000
   7867 C         717.2689 -111.4908  -89.2073 C.3    1311        0    0.0000
   7868 C         717.8402 -110.7330  -90.4108 C.3    1311        0    0.0000
   7869 H         717.2639 -110.8424  -88.3224 H      1311        0    0.0000
   7870 H         717.9080 -112.3491  -88.9653 H      1311        0    0.0000
   7871 H         718.0308 -111.4287  -91.2373 H      1311        0    0.0000
   7872 H         717.1086 -110.0020  -90.7768 H      1311        0    0.0000
   7873 C         719.1727 -109.9839  -90.0633 C.3    1312        0    0.0000
   7874 C         720.1704 -110.0034  -91.2266 C.3    1312        0    0.0000
   7875 H         718.9350 -108.9487  -89.7887 H      1312        0    0.0000
   7876 H         719.6196 -110.4503  -89.1766 H      1312        0    0.0000
   7877 H         720.4310 -111.0381  -91.4814 H      1312        0    0.0000
   7878 H         719.7130 -109.5641  -92.1217 H      1312        0    0.0000
   7879 C         721.4859 -109.2182  -90.8942 C.3    1313        0    0.0000
   7880 C         722.3332 -108.9495  -92.1428 C.3    1313        0    0.0000
   7881 H         721.2194 -108.2709  -90.4094 H      1313        0    0.0000
   7882 H         722.0662 -109.7942  -90.1627 H      1313        0    0.0000
   7883 H         722.6501 -109.8981  -92.5937 H      1313        0    0.0000
   7884 H         721.7342 -108.4261  -92.8984 H      1313        0    0.0000
   7885 C         723.6058 -108.0915  -91.8238 C.3    1314        0    0.0000
   7886 C         724.6807 -108.2212  -92.9087 C.3    1314        0    0.0000
   7887 H         723.3063 -107.0418  -91.7147 H      1314        0    0.0000
   7888 H         724.0104 -108.4063  -90.8539 H      1314        0    0.0000
   7889 H         724.9015 -109.2796  -93.0949 H      1314        0    0.0000
   7890 H         724.3124 -107.8051  -93.8547 H      1314        0    0.0000
   7891 C         726.0104 -107.4888  -92.5182 C.3    1315        0    0.0000
   7892 C         726.8021 -107.0276  -93.7469 C.3    1315        0    0.0000
   7893 H         725.7667 -106.6281  -91.8831 H      1315        0    0.0000
   7894 H         726.6217 -108.1664  -91.9094 H      1315        0    0.0000
   7895 H         726.9900 -107.8780  -94.4141 H      1315        0    0.0000
   7896 H         726.2151 -106.3003  -94.3213 H      1315        0    0.0000
   7897 C         728.1744 -106.3765  -93.3595 C.3    1316        0    0.0000
   7898 C         729.1786 -106.4059  -94.5169 C.3    1316        0    0.0000
   7899 H         727.9975 -105.3416  -93.0412 H      1316        0    0.0000
   7900 H         728.5851 -106.9071  -92.4915 H      1316        0    0.0000
   7901 H         729.1032 -107.3582  -95.0562 H      1316        0    0.0000
   7902 H         728.9429 -105.6150  -95.2397 H      1316        0    0.0000
   7903 C         730.6558 -106.2184  -94.0267 C.3    1317        0    0.0000
   7904 C         731.4495 -105.2639  -94.9257 C.3    1317        0    0.0000
   7905 H         730.6414 -105.8405  -92.9969 H      1317        0    0.0000
   7906 H         731.1453 -107.1997  -93.9953 H      1317        0    0.0000
   7907 H         731.3352 -105.5552  -95.9772 H      1317        0    0.0000
   7908 H         731.0522 -104.2452  -94.8360 H      1317        0    0.0000
   7909 C         732.9760 -105.2440  -94.5699 C.3    1318        0    0.0000
   7910 C         733.8248 -104.6274  -95.6873 C.3    1318        0    0.0000
   7911 H         733.1146 -104.6815  -93.6383 H      1318        0    0.0000
   7912 H         733.3058 -106.2710  -94.3700 H      1318        0    0.0000
   7913 H         733.3571 -104.8146  -96.6618 H      1318        0    0.0000
   7914 H         733.8738 -103.5384  -95.5653 H      1318        0    0.0000
   7915 C         735.2842 -105.1995  -95.7092 C.3    1319        0    0.0000
   7916 C         736.3252 -104.1231  -96.0361 C.3    1319        0    0.0000
   7917 H         735.5023 -105.6494  -94.7326 H      1319        0    0.0000
   7918 H         735.3356 -106.0092  -96.4476 H      1319        0    0.0000
   7919 H         737.3266 -104.5691  -96.0792 H      1319        0    0.0000
   7920 H         736.1271 -103.6971  -97.0275 H      1319        0    0.0000
   7921 C         736.3331 -102.9642  -94.9806 C.3    1320        0    0.0000
   7922 C         737.5034 -101.9967  -95.1889 C.3    1320        0    0.0000
   7923 H         735.3812 -102.4223  -95.0433 H      1320        0    0.0000
   7924 H         736.3809 -103.4016  -93.9756 H      1320        0    0.0000
   7925 H         737.2701 -101.0224  -94.7418 H      1320        0    0.0000
   7926 H         738.3978 -102.3724  -94.6766 H      1320        0    0.0000
   7927 C         737.8397 -101.7890  -96.7060 C.3    1321        0    0.0000
   7928 C         739.2286 -101.1754  -96.9143 C.3    1321        0    0.0000
   7929 H         737.7754 -102.7571  -97.2181 H      1321        0    0.0000
   7930 H         737.0728 -101.1446  -97.1532 H      1321        0    0.0000
   7931 H         739.1487 -100.2570  -97.5090 H      1321        0    0.0000
   7932 H         739.6619 -100.8885  -95.9482 H      1321        0    0.0000
   7933 C         740.2112 -102.1608  -97.6362 C.3    1322        0    0.0000
   7934 C         741.6037 -101.5518  -97.8336 C.3    1322        0    0.0000
   7935 H         740.2841 -103.0829  -97.0462 H      1322        0    0.0000
   7936 H         739.7820 -102.4407  -98.6062 H      1322        0    0.0000
   7937 H         742.1321 -101.5020  -96.8735 H      1322        0    0.0000
   7938 H         742.2047 -102.1922  -98.4911 H      1322        0    0.0000
   7939 C         741.5404 -100.1121  -98.4507 C.3    1323        0    0.0000
   7940 C         742.9329  -99.5495  -98.7566 C.3    1323        0    0.0000
   7941 H         740.9390 -100.1465  -99.3676 H      1323        0    0.0000
   7942 H         741.0126  -99.4509  -97.7524 H      1323        0    0.0000
   7943 H         743.6429 -100.3701  -98.9179 H      1323        0    0.0000
   7944 H         742.9076  -98.9675  -99.6861 H      1323        0    0.0000
   7945 C         743.4710  -98.6352  -97.6025 C.3    1324        0    0.0000
   7946 C         744.9399  -98.2476  -97.8055 C.3    1324        0    0.0000
   7947 H         742.8484  -97.7337  -97.5461 H      1324        0    0.0000
   7948 H         743.3495  -99.1623  -96.6480 H      1324        0    0.0000
   7949 H         745.1721  -98.2009  -98.8767 H      1324        0    0.0000
   7950 H         745.1240  -97.2453  -97.3994 H      1324        0    0.0000
   7951 C         745.9216  -99.2590  -97.1194 C.3    1325        0    0.0000
   7952 C         747.3432  -99.1626  -97.6841 C.3    1325        0    0.0000
   7953 H         745.9318  -99.0648  -96.0397 H      1325        0    0.0000
   7954 H         745.5319 -100.2758  -97.2529 H      1325        0    0.0000
   7955 H         748.0151  -99.8275  -97.1273 H      1325        0    0.0000
   7956 H         747.3573  -99.5020  -98.7272 H      1325        0    0.0000
   7957 C         747.9102  -97.7025  -97.6202 C.3    1326        0    0.0000
   7958 C         748.9784  -97.4469  -98.6892 C.3    1326        0    0.0000
   7959 H         747.0803  -96.9953  -97.7411 H      1326        0    0.0000
   7960 H         748.3288  -97.5292  -96.6211 H      1326        0    0.0000
   7961 H         748.8066  -98.0973  -99.5557 H      1326        0    0.0000
   7962 H         748.9080  -96.4138  -99.0517 H      1326        0    0.0000
   7963 C         750.4294  -97.6955  -98.1505 C.3    1327        0    0.0000
   7964 C         751.5026  -97.1522  -99.1003 C.3    1327        0    0.0000
   7965 H         750.5262  -97.2242  -97.1646 H      1327        0    0.0000
   7966 H         750.5709  -98.7729  -97.9999 H      1327        0    0.0000
   7967 H         751.3645  -97.5730 -100.1040 H      1327        0    0.0000
   7968 H         751.4023  -96.0642  -99.1982 H      1327        0    0.0000
   7969 C         752.9539  -97.4837  -98.6088 C.3    1328        0    0.0000
   7970 C         753.9891  -96.4862  -99.1401 C.3    1328        0    0.0000
   7971 H         752.9635  -97.4873  -97.5118 H      1328        0    0.0000
   7972 H         753.2121  -98.5005  -98.9294 H      1328        0    0.0000
   7973 H         753.7696  -96.2375 -100.1859 H      1328        0    0.0000
   7974 H         753.9323  -95.5479  -98.5745 H      1328        0    0.0000
   7975 C         755.4517  -97.0430  -99.0495 C.3    1329        0    0.0000
   7976 C         756.4536  -96.1711  -99.8145 C.3    1329        0    0.0000
   7977 H         755.7402  -97.1089  -97.9931 H      1329        0    0.0000
   7978 H         755.4655  -98.0665  -99.4443 H      1329        0    0.0000
   7979 H         757.2406  -96.7980 -100.2518 H      1329        0    0.0000
   7980 H         755.9523  -95.6665 -100.6496 H      1329        0    0.0000
   7981 C         757.1209  -95.0890  -98.8974 C.3    1330        0    0.0000
   7982 C         757.9915  -94.1101  -99.6930 C.3    1330        0    0.0000
   7983 H         756.3329  -94.5433  -98.3635 H      1330        0    0.0000
   7984 H         757.7253  -95.5957  -98.1349 H      1330        0    0.0000
   7985 H         757.7016  -94.1232 -100.7510 H      1330        0    0.0000
   7986 H         757.8295  -93.0859  -99.3347 H      1330        0    0.0000
   7987 C         759.5182  -94.4483  -99.5832 C.3    1331        0    0.0000
   7988 C         760.3779  -93.5509 -100.4802 C.3    1331        0    0.0000
   7989 H         759.8294  -94.3426  -98.5365 H      1331        0    0.0000
   7990 H         759.6672  -95.5016  -99.8514 H      1331        0    0.0000
   7991 H         760.0430  -93.6289 -101.5220 H      1331        0    0.0000
   7992 H         760.2567  -92.5004 -100.1881 H      1331        0    0.0000
   7993 C         761.8992  -93.9228 -100.4094 C.3    1332        0    0.0000
   7994 C         762.8052  -92.7007 -100.5958 C.3    1332        0    0.0000
   7995 H         762.1025  -94.3976  -99.4415 H      1332        0    0.0000
   7996 H         762.1161  -94.6729 -101.1800 H      1332        0    0.0000
   7997 H         762.8964  -92.4593 -101.6621 H      1332        0    0.0000
   7998 H         762.3583  -91.8237 -100.1114 H      1332        0    0.0000
   7999 C         764.2392  -92.9285 -100.0049 C.3    1333        0    0.0000
   8000 C         765.3171  -92.1701 -100.7872 C.3    1333        0    0.0000
   8001 H         764.2433  -92.6114  -98.9547 H      1333        0    0.0000
   8002 H         764.4572  -94.0037 -100.0101 H      1333        0    0.0000
   8003 H         765.0997  -92.2095 -101.8618 H      1333        0    0.0000
   8004 H         765.3121  -91.1103 -100.5035 H      1333        0    0.0000
   8005 C         766.7513  -92.7527 -100.5399 C.3    1334        0    0.0000
   8006 C         767.8448  -91.6904 -100.6976 C.3    1334        0    0.0000
   8007 H         766.7887  -93.1843  -99.5321 H      1334        0    0.0000
   8008 H         766.9238  -93.5774 -101.2425 H      1334        0    0.0000
   8009 H         767.5731  -90.7852 -100.1406 H      1334        0    0.0000
   8010 H         768.7868  -92.0537 -100.2683 H      1334        0    0.0000
   8011 C         768.0881  -91.3065 -102.1979 C.3    1335        0    0.0000
   8012 C         768.8298  -89.9731 -102.3433 C.3    1335        0    0.0000
   8013 H         768.6596  -92.1092 -102.6802 H      1335        0    0.0000
   8014 H         767.1201  -91.2564 -102.7116 H      1335        0    0.0000
   8015 H         768.3815  -89.3793 -103.1495 H      1335        0    0.0000
   8016 H         768.7277  -89.3836 -101.4237 H      1335        0    0.0000
   8017 C         770.3543  -90.1715 -102.6497 C.3    1336        0    0.0000
   8018 C         771.2045  -88.9976 -102.1516 C.3    1336        0    0.0000
   8019 H         770.6906  -91.1049 -102.1813 H      1336        0    0.0000
   8020 H         770.4841  -90.2975 -103.7317 H      1336        0    0.0000
   8021 H         770.7256  -88.0469 -102.4171 H      1336        0    0.0000
   8022 H         771.2733  -89.0207 -101.0569 H      1336        0    0.0000
   8023 C         772.6536  -89.0176 -102.7494 C.3    1337        0    0.0000
   8024 C         773.7195  -88.6832 -101.7001 C.3    1337        0    0.0000
   8025 H         772.8455  -90.0091 -103.1779 H      1337        0    0.0000
   8026 H         772.7039  -88.3010 -103.5785 H      1337        0    0.0000
   8027 H         773.8401  -87.5957 -101.6199 H      1337        0    0.0000
   8028 H         773.3998  -89.0384 -100.7127 H      1337        0    0.0000
   8029 C         775.1099  -89.3219 -102.0412 C.3    1338        0    0.0000
   8030 C         776.2693  -88.3458 -101.8130 C.3    1338        0    0.0000
   8031 H         775.2471  -90.2195 -101.4256 H      1338        0    0.0000
   8032 H         775.0991  -89.6553 -103.0863 H      1338        0    0.0000
   8033 H         775.9515  -87.3226 -102.0487 H      1338        0    0.0000
   8034 H         776.5612  -88.3492 -100.7555 H      1338        0    0.0000
   8035 C         777.5235  -88.6988 -102.6846 C.3    1339        0    0.0000
   8036 C         778.7582  -87.8845 -102.2825 C.3    1339        0    0.0000
   8037 H         777.7319  -89.7714 -102.5863 H      1339        0    0.0000
   8038 H         777.2824  -88.5201 -103.7398 H      1339        0    0.0000
   8039 H         779.1820  -88.2792 -101.3508 H      1339        0    0.0000
   8040 H         779.5377  -87.9801 -103.0485 H      1339        0    0.0000
   8041 C         778.4288  -86.3649 -102.0837 C.3    1340        0    0.0000
   8042 C         779.6826  -85.5315 -101.7965 C.3    1340        0    0.0000
   8043 H         777.9268  -85.9910 -102.9847 H      1340        0    0.0000
   8044 H         777.7125  -86.2633 -101.2589 H      1340        0    0.0000
   8045 H         780.2274  -85.3380 -102.7289 H      1340        0    0.0000
   8046 H         779.3989  -84.5535 -101.3886 H      1340        0    0.0000
   8047 C         780.6481  -86.2401 -100.7849 C.3    1341        0    0.0000
   8048 C         782.0273  -85.5736 -100.7343 C.3    1341        0    0.0000
   8049 H         780.1878  -86.2283  -99.7892 H      1341        0    0.0000
   8050 H         780.7500  -87.2940 -101.0724 H      1341        0    0.0000
   8051 H         781.9594  -84.5405 -101.0972 H      1341        0    0.0000
   8052 H         782.3817  -85.5207  -99.6974 H      1341        0    0.0000
   8053 C         783.0903  -86.3419 -101.5929 C.3    1342        0    0.0000
   8054 C         784.5026  -85.7741 -101.4132 C.3    1342        0    0.0000
   8055 H         783.0727  -87.4022 -101.3118 H      1342        0    0.0000
   8056 H         782.7960  -86.2910 -102.6485 H      1342        0    0.0000
   8057 H         784.5200  -85.0684 -100.5733 H      1342        0    0.0000
   8058 H         785.2029  -86.5802 -101.1619 H      1342        0    0.0000
   8059 C         785.0164  -85.0409 -102.7000 C.3    1343        0    0.0000
   8060 C         786.1149  -84.0190 -102.3867 C.3    1343        0    0.0000
   8061 H         785.3909  -85.7904 -103.4082 H      1343        0    0.0000
   8062 H         784.1680  -84.5440 -103.1864 H      1343        0    0.0000
   8063 H         786.5026  -83.5863 -103.3173 H      1343        0    0.0000
   8064 H         785.7003  -83.1885 -101.8019 H      1343        0    0.0000
   8065 C         787.3064  -84.6531 -101.5893 C.3    1344        0    0.0000
   8066 C         788.3456  -83.6079 -101.1691 C.3    1344        0    0.0000
   8067 H         786.9075  -85.1638 -100.7042 H      1344        0    0.0000
   8068 H         787.7781  -85.4235 -102.2118 H      1344        0    0.0000
   8069 H         788.9175  -83.2733 -102.0436 H      1344        0    0.0000
   8070 H         787.8440  -82.7209 -100.7627 H      1344        0    0.0000
   8071 C         789.3436  -84.1611 -100.0942 C.3    1345        0    0.0000
   8072 C         790.5838  -83.2734  -99.9417 C.3    1345        0    0.0000
   8073 H         788.8194  -84.2431  -99.1341 H      1345        0    0.0000
   8074 H         789.6415  -85.1779 -100.3784 H      1345        0    0.0000
   8075 H         790.4025  -82.2923 -100.3976 H      1345        0    0.0000
   8076 H         790.7895  -83.0939  -98.8792 H      1345        0    0.0000
   8077 C         791.8550  -83.9102 -100.6020 C.3    1346        0    0.0000
   8078 C         792.9616  -82.8782 -100.8459 C.3    1346        0    0.0000
   8079 H         792.2260  -84.7132  -99.9530 H      1346        0    0.0000
   8080 H         791.5635  -84.3802 -101.5495 H      1346        0    0.0000
   8081 H         792.8033  -82.3775 -101.8091 H      1346        0    0.0000
   8082 H         792.9249  -82.0981 -100.0755 H      1346        0    0.0000
   8083 C         794.3892  -83.5257 -100.8418 C.3    1347        0    0.0000
   8084 C         795.4928  -82.5005 -101.1253 C.3    1347        0    0.0000
   8085 H         794.5590  -84.0014  -99.8679 H      1347        0    0.0000
   8086 H         794.4170  -84.3254 -101.5921 H      1347        0    0.0000
   8087 H         796.1359  -82.8558 -101.9401 H      1347        0    0.0000
   8088 H         795.0503  -81.5550 -101.4625 H      1347        0    0.0000
   8089 C         796.3821  -82.2211  -99.8649 C.3    1348        0    0.0000
   8090 C         797.3175  -81.0240 -100.0678 C.3    1348        0    0.0000
   8091 H         795.7276  -82.0451  -99.0023 H      1348        0    0.0000
   8092 H         796.9669  -83.1212  -99.6381 H      1348        0    0.0000
   8093 H         797.4493  -80.8270 -101.1390 H      1348        0    0.0000
   8094 H         796.8716  -80.1205  -99.6339 H      1348        0    0.0000
   8095 C         798.7261  -81.2540  -99.4192 C.3    1349        0    0.0000
   8096 C         799.7750  -80.2671  -99.9434 C.3    1349        0    0.0000
   8097 H         798.6332  -81.1610  -98.3300 H      1349        0    0.0000
   8098 H         799.0446  -82.2841  -99.6214 H      1349        0    0.0000
   8099 H         799.6666  -80.1438 -101.0281 H      1349        0    0.0000
   8100 H         799.6170  -79.2777  -99.4965 H      1349        0    0.0000
   8101 C         801.2386  -80.7344  -99.6317 C.3    1350        0    0.0000
   8102 C         802.1910  -79.5538  -99.4119 C.3    1350        0    0.0000
   8103 H         801.2231  -81.3759  -98.7419 H      1350        0    0.0000
   8104 H         801.5956  -81.3562 -100.4621 H      1350        0    0.0000
   8105 H         802.2290  -78.9285 -100.3125 H      1350        0    0.0000
   8106 H         801.8184  -78.9159  -98.6009 H      1350        0    0.0000
   8107 C         803.6452  -80.0212  -99.0595 C.3    1351        0    0.0000
   8108 C         804.7032  -78.9957  -99.4813 C.3    1351        0    0.0000
   8109 H         803.7064  -80.2023  -97.9792 H      1351        0    0.0000
   8110 H         803.8364  -80.9830  -99.5514 H      1351        0    0.0000
   8111 H         805.5412  -79.5017  -99.9764 H      1351        0    0.0000
   8112 H         804.2794  -78.2977 -100.2140 H      1351        0    0.0000
   8113 C         805.2554  -78.1768  -98.2639 C.3    1352        0    0.0000
   8114 C         806.6828  -77.6722  -98.5028 C.3    1352        0    0.0000
   8115 H         804.5842  -77.3303  -98.0735 H      1352        0    0.0000
   8116 H         805.2253  -78.8103  -97.3688 H      1352        0    0.0000
   8117 H         807.1642  -78.2647  -99.2907 H      1352        0    0.0000
   8118 H         806.6603  -76.6345  -98.8582 H      1352        0    0.0000
   8119 C         807.5629  -77.7438  -97.2075 C.3    1353        0    0.0000
   8120 C         809.0316  -77.4036  -97.4836 C.3    1353        0    0.0000
   8121 H         807.1507  -77.0533  -96.4613 H      1353        0    0.0000
   8122 H         807.4839  -78.7518  -96.7816 H      1353        0    0.0000
   8123 H         809.4224  -78.0450  -98.2833 H      1353        0    0.0000
   8124 H         809.1177  -76.3693  -97.8389 H      1353        0    0.0000
   8125 C         809.9311  -77.5775  -96.2115 C.3    1354        0    0.0000
   8126 C         811.2982  -76.9028  -96.3701 C.3    1354        0    0.0000
   8127 H         809.4034  -77.1591  -95.3455 H      1354        0    0.0000
   8128 H         810.0610  -78.6487  -96.0140 H      1354        0    0.0000
   8129 H         811.2856  -75.9120  -95.8993 H      1354        0    0.0000
   8130 H         812.0686  -77.4877  -95.8525 H      1354        0    0.0000
   8131 C         811.7107  -76.7425  -97.8739 C.3    1355        0    0.0000
   8132 C         813.0283  -75.9765  -98.0364 C.3    1355        0    0.0000
   8133 H         811.7968  -77.7388  -98.3251 H      1355        0    0.0000
   8134 H         810.9054  -76.2232  -98.4081 H      1355        0    0.0000
   8135 H         813.0350  -75.4383  -98.9923 H      1355        0    0.0000
   8136 H         813.1229  -75.2195  -97.2480 H      1355        0    0.0000
   8137 C         814.2766  -76.9231  -97.9805 C.3    1356        0    0.0000
   8138 C         815.5438  -76.1874  -97.5310 C.3    1356        0    0.0000
   8139 H         814.0608  -77.7531  -97.2963 H      1356        0    0.0000
   8140 H         814.4301  -77.3648  -98.9730 H      1356        0    0.0000
   8141 H         816.3995  -76.8738  -97.5374 H      1356        0    0.0000
   8142 H         815.7811  -75.3815  -98.2365 H      1356        0    0.0000
   8143 C         815.3977  -75.5754  -96.0951 C.3    1357        0    0.0000
   8144 C         816.6677  -74.8464  -95.6425 C.3    1357        0    0.0000
   8145 H         814.5455  -74.8846  -96.0903 H      1357        0    0.0000
   8146 H         815.1547  -76.3805  -95.3907 H      1357        0    0.0000
   8147 H         816.4366  -73.8007  -95.4047 H      1357        0    0.0000
   8148 H         817.0543  -75.3009  -94.7219 H      1357        0    0.0000
   8149 C         817.7928  -74.8799  -96.7336 C.3    1358        0    0.0000
   8150 C         818.9310  -73.9011  -96.4245 C.3    1358        0    0.0000
   8151 H         818.1848  -75.9019  -96.8060 H      1358        0    0.0000
   8152 H         817.3475  -74.6435  -97.7080 H      1358        0    0.0000
   8153 H         819.2374  -73.3794  -97.3396 H      1358        0    0.0000
   8154 H         818.5852  -73.1312  -95.7236 H      1358        0    0.0000
   8155 C         820.1815  -74.6192  -95.8095 C.3    1359        0    0.0000
   8156 C         821.3660  -73.6647  -95.6227 C.3    1359        0    0.0000
   8157 H         819.8978  -75.0598  -94.8457 H      1359        0    0.0000
   8158 H         820.4687  -75.4516  -96.4640 H      1359        0    0.0000
   8159 H         821.3489  -72.8880  -96.3973 H      1359        0    0.0000
   8160 H         821.2850  -73.1491  -94.6578 H      1359        0    0.0000
   8161 C         822.7443  -74.4090  -95.6839 C.3    1360        0    0.0000
   8162 C         823.8485  -73.6486  -94.9412 C.3    1360        0    0.0000
   8163 H         822.6240  -75.4115  -95.2548 H      1360        0    0.0000
   8164 H         823.0248  -74.5478  -96.7353 H      1360        0    0.0000
   8165 H         823.5456  -73.4645  -93.9030 H      1360        0    0.0000
   8166 H         824.7612  -74.2559  -94.9002 H      1360        0    0.0000
   8167 C         824.1849  -72.2763  -95.6204 C.3    1361        0    0.0000
   8168 C         825.0223  -71.3687  -94.7126 C.3    1361        0    0.0000
   8169 H         824.7209  -72.4679  -96.5582 H      1361        0    0.0000
   8170 H         823.2466  -71.7760  -95.8903 H      1361        0    0.0000
   8171 H         825.0323  -70.3459  -95.1093 H      1361        0    0.0000
   8172 H         824.5706  -71.3151  -93.7143 H      1361        0    0.0000
   8173 C         826.5008  -71.8705  -94.5718 C.3    1362        0    0.0000
   8174 C         827.2815  -71.0871  -93.5108 C.3    1362        0    0.0000
   8175 H         826.4894  -72.9379  -94.3186 H      1362        0    0.0000
   8176 H         826.9981  -71.7830  -95.5457 H      1362        0    0.0000
   8177 H         827.2448  -70.0134  -93.7331 H      1362        0    0.0000
   8178 H         826.8163  -71.2210  -92.5263 H      1362        0    0.0000
   8179 C         828.7815  -71.5345  -93.4259 C.3    1363        0    0.0000
   8180 C         829.6326  -70.5605  -92.6035 C.3    1363        0    0.0000
   8181 H         828.8268  -72.5381  -92.9852 H      1363        0    0.0000
   8182 H         829.1835  -71.6187  -94.4432 H      1363        0    0.0000
   8183 H         829.6384  -69.5720  -93.0793 H      1363        0    0.0000
   8184 H         829.1946  -70.4277  -91.6065 H      1363        0    0.0000
   8185 C         831.1121  -71.0532  -92.4439 C.3    1364        0    0.0000
   8186 C         832.0267  -69.9679  -91.8652 C.3    1364        0    0.0000
   8187 H         831.1221  -71.9383  -91.7958 H      1364        0    0.0000
   8188 H         831.4850  -71.3761  -93.4238 H      1364        0    0.0000
   8189 H         832.0126  -69.0809  -92.5106 H      1364        0    0.0000
   8190 H         831.6566  -69.6486  -90.8830 H      1364        0    0.0000
   8191 C         833.5076  -70.4583  -91.7123 C.3    1365        0    0.0000
   8192 C         834.3985  -69.4128  -91.0323 C.3    1365        0    0.0000
   8193 H         833.5135  -71.3907  -91.1342 H      1365        0    0.0000
   8194 H         833.9041  -70.7013  -92.7059 H      1365        0    0.0000
   8195 H         834.5949  -68.5812  -91.7204 H      1365        0    0.0000
   8196 H         833.8824  -68.9871  -90.1628 H      1365        0    0.0000
   8197 C         835.7679  -70.0142  -90.5626 C.3    1366        0    0.0000
   8198 C         836.7586  -68.9300  -90.1241 C.3    1366        0    0.0000
   8199 H         835.5831  -70.7113  -89.7360 H      1366        0    0.0000
   8200 H         836.1949  -70.6043  -91.3829 H      1366        0    0.0000
   8201 H         836.9001  -68.2010  -90.9317 H      1366        0    0.0000
   8202 H         836.3555  -68.3765  -89.2671 H      1366        0    0.0000
   8203 C         838.1544  -69.5249  -89.7300 C.3    1367        0    0.0000
   8204 C         839.0552  -68.4898  -89.0473 C.3    1367        0    0.0000
   8205 H         837.9979  -70.3838  -89.0657 H      1367        0    0.0000
   8206 H         838.6424  -69.9105  -90.6338 H      1367        0    0.0000
   8207 H         838.4597  -67.6260  -88.7270 H      1367        0    0.0000
   8208 H         839.5012  -68.9185  -88.1413 H      1367        0    0.0000
   8209 C         840.2050  -67.9899  -89.9886 C.3    1368        0    0.0000
   8210 C         840.8184  -66.6708  -89.5061 C.3    1368        0    0.0000
   8211 H         840.9783  -68.7660  -90.0450 H      1368        0    0.0000
   8212 H         839.8046  -67.8698  -91.0028 H      1368        0    0.0000
   8213 H         841.2130  -66.1052  -90.3592 H      1368        0    0.0000
   8214 H         840.0463  -66.0442  -89.0427 H      1368        0    0.0000
   8215 C         841.9742  -66.8965  -88.4714 C.3    1369        0    0.0000
   8216 C         842.8744  -65.6643  -88.3282 C.3    1369        0    0.0000
   8217 H         841.5341  -67.1557  -87.5005 H      1369        0    0.0000
   8218 H         842.5689  -67.7620  -88.7888 H      1369        0    0.0000
   8219 H         842.8824  -65.0935  -89.2649 H      1369        0    0.0000
   8220 H         842.4763  -64.9955  -87.5550 H      1369        0    0.0000
   8221 C         844.3488  -66.0457  -87.9562 C.3    1370        0    0.0000
   8222 C         844.9843  -65.0370  -86.9930 C.3    1370        0    0.0000
   8223 H         844.3527  -67.0472  -87.5084 H      1370        0    0.0000
   8224 H         844.9406  -66.1102  -88.8776 H      1370        0    0.0000
   8225 H         844.9112  -64.0238  -87.4073 H      1370        0    0.0000
   8226 H         844.4372  -65.0287  -86.0421 H      1370        0    0.0000
   8227 C         846.4916  -65.3580  -86.7059 C.3    1371        0    0.0000
   8228 C         847.2928  -64.1041  -86.3384 C.3    1371        0    0.0000
   8229 H         846.5482  -66.0922  -85.8927 H      1371        0    0.0000
   8230 H         846.9265  -65.8358  -87.5926 H      1371        0    0.0000
   8231 H         847.4725  -63.4967  -87.2341 H      1371        0    0.0000
   8232 H         846.7165  -63.4795  -85.6446 H      1371        0    0.0000
   8233 C         848.6717  -64.4522  -85.6789 C.3    1372        0    0.0000
   8234 C         849.3014  -63.2439  -84.9772 C.3    1372        0    0.0000
   8235 H         848.5244  -65.2691  -84.9616 H      1372        0    0.0000
   8236 H         849.3486  -64.8319  -86.4542 H      1372        0    0.0000
   8237 H         849.1508  -62.3389  -85.5788 H      1372        0    0.0000
   8238 H         848.8062  -63.0679  -84.0141 H      1372        0    0.0000
   8239 C         850.8373  -63.4353  -84.7282 C.3    1373        0    0.0000
   8240 C         851.5035  -62.1601  -84.1997 C.3    1373        0    0.0000
   8241 H         850.9803  -64.2573  -84.0158 H      1373        0    0.0000
   8242 H         851.3117  -63.7462  -85.6672 H      1373        0    0.0000
   8243 H         851.3080  -61.3234  -84.8818 H      1373        0    0.0000
   8244 H         851.0710  -61.8839  -83.2301 H      1373        0    0.0000
   8245 C         853.0535  -62.3249  -84.0332 C.3    1374        0    0.0000
   8246 C         853.6007  -61.5115  -82.8550 C.3    1374        0    0.0000
   8247 H         853.2831  -63.3886  -83.8948 H      1374        0    0.0000
   8248 H         853.5440  -62.0152  -84.9642 H      1374        0    0.0000
   8249 H         853.4423  -60.4404  -83.0316 H      1374        0    0.0000
   8250 H         853.0544  -61.7637  -81.9377 H      1374        0    0.0000
   8251 C         855.1297  -61.7638  -82.6181 C.3    1375        0    0.0000
   8252 C         855.8166  -60.5735  -81.9398 C.3    1375        0    0.0000
   8253 H         855.2484  -62.6659  -82.0052 H      1375        0    0.0000
   8254 H         855.6071  -61.9737  -83.5833 H      1375        0    0.0000
   8255 H         855.6316  -59.6561  -82.5123 H      1375        0    0.0000
   8256 H         855.3914  -60.4128  -80.9413 H      1375        0    0.0000
   8257 C         857.3646  -60.7800  -81.8025 C.3    1376        0    0.0000
   8258 C         858.0160  -59.7155  -80.9128 C.3    1376        0    0.0000
   8259 H         857.5529  -61.7798  -81.3922 H      1376        0    0.0000
   8260 H         857.8140  -60.7603  -82.8031 H      1376        0    0.0000
   8261 H         857.8384  -58.7165  -81.3301 H      1376        0    0.0000
   8262 H         857.5578  -59.7266  -79.9161 H      1376        0    0.0000
   8263 C         859.5611  -59.9324  -80.7611 C.3    1377        0    0.0000
   8264 C         860.2041  -58.8988  -79.8297 C.3    1377        0    0.0000
   8265 H         859.7403  -60.9453  -80.3798 H      1377        0    0.0000
   8266 H         860.0242  -59.8832  -81.7544 H      1377        0    0.0000
   8267 H         860.0715  -57.8897  -80.2391 H      1377        0    0.0000
   8268 H         859.7047  -58.9107  -78.8529 H      1377        0    0.0000
   8269 C         861.7350  -59.1612  -79.6178 C.3    1378        0    0.0000
   8270 C         862.4084  -58.0477  -78.8081 C.3    1378        0    0.0000
   8271 H         861.8616  -60.1251  -79.1095 H      1378        0    0.0000
   8272 H         862.2164  -59.2567  -80.5989 H      1378        0    0.0000
   8273 H         862.2741  -57.0824  -79.3118 H      1378        0    0.0000
   8274 H         861.9329  -57.9581  -77.8236 H      1378        0    0.0000
   8275 C         863.9420  -58.3036  -78.6071 C.3    1379        0    0.0000
   8276 C         864.6102  -57.2036  -77.7751 C.3    1379        0    0.0000
   8277 H         864.0770  -59.2777  -78.1207 H      1379        0    0.0000
   8278 H         864.4207  -58.3740  -79.5916 H      1379        0    0.0000
   8279 H         864.4564  -56.2267  -78.2501 H      1379        0    0.0000
   8280 H         864.1459  -57.1479  -76.7827 H      1379        0    0.0000
   8281 C         866.1495  -57.4434  -77.5999 C.3    1380        0    0.0000
   8282 C         866.7977  -56.4059  -76.6766 C.3    1380        0    0.0000
   8283 H         866.3069  -58.4530  -77.2004 H      1380        0    0.0000
   8284 H         866.6260  -57.4177  -78.5878 H      1380        0    0.0000
   8285 H         866.6417  -55.3965  -77.0769 H      1380        0    0.0000
   8286 H         866.3201  -56.4306  -75.6893 H      1380        0    0.0000
   8287 C         868.3365  -56.6471  -76.4998 C.3    1381        0    0.0000
   8288 C         868.9856  -55.6069  -75.5801 C.3    1381        0    0.0000
   8289 H         868.4924  -57.6553  -76.0964 H      1381        0    0.0000
   8290 H         868.8135  -56.6258  -77.4875 H      1381        0    0.0000
   8291 H         868.8284  -54.5986  -75.9828 H      1381        0    0.0000
   8292 H         868.5096  -55.6293  -74.5920 H      1381        0    0.0000
   8293 C         870.5248  -55.8467  -75.4051 C.3    1382        0    0.0000
   8294 C         871.1782  -54.7930  -74.5039 C.3    1382        0    0.0000
   8295 H         870.6812  -56.8487  -74.9866 H      1382        0    0.0000
   8296 H         870.9984  -55.8412  -76.3946 H      1382        0    0.0000
   8297 H         871.0410  -53.7931  -74.9341 H      1382        0    0.0000
   8298 H         870.6896  -54.7831  -73.5217 H      1382        0    0.0000
   8299 C         872.7114  -55.0510  -74.3033 C.3    1383        0    0.0000
   8300 C         873.3652  -53.9955  -73.4047 C.3    1383        0    0.0000
   8301 H         872.8483  -56.0500  -73.8711 H      1383        0    0.0000
   8302 H         873.1994  -55.0632  -75.2857 H      1383        0    0.0000
   8303 H         873.2241  -52.9960  -73.8344 H      1383        0    0.0000
   8304 H         872.8804  -53.9867  -72.4207 H      1383        0    0.0000
   8305 C         874.8998  -54.2495  -73.2097 C.3    1384        0    0.0000
   8306 C         875.5558  -53.1879  -72.3200 C.3    1384        0    0.0000
   8307 H         875.0405  -55.2458  -72.7725 H      1384        0    0.0000
   8308 H         875.3834  -54.2663  -74.1943 H      1384        0    0.0000
   8309 H         875.4134  -52.1914  -72.7562 H      1384        0    0.0000
   8310 H         875.0735  -53.1724  -71.3348 H      1384        0    0.0000
   8311 C         877.0909  -53.4404  -72.1271 C.3    1385        0    0.0000
   8312 C         877.7377  -52.4060  -71.1993 C.3    1385        0    0.0000
   8313 H         877.2352  -54.4502  -71.7232 H      1385        0    0.0000
   8314 H         877.5786  -53.4214  -73.1096 H      1385        0    0.0000
   8315 H         877.5916  -51.3961  -71.6021 H      1385        0    0.0000
   8316 H         877.2514  -52.4265  -70.2161 H      1385        0    0.0000
   8317 C         879.2734  -52.6568  -71.0088 C.3    1386        0    0.0000
   8318 C         879.9225  -51.6153  -70.0906 C.3    1386        0    0.0000
   8319 H         879.4189  -53.6635  -70.5977 H      1386        0    0.0000
   8320 H         879.7584  -52.6452  -71.9928 H      1386        0    0.0000
   8321 H         879.7874  -50.6098  -70.5079 H      1386        0    0.0000
   8322 H         879.4296  -51.6186  -69.1105 H      1386        0    0.0000
   8323 C         881.4548  -51.8760  -69.8866 C.3    1387        0    0.0000
   8324 C         882.1013  -50.8416  -68.9586 C.3    1387        0    0.0000
   8325 H         881.5905  -52.8849  -69.4777 H      1387        0    0.0000
   8326 H         881.9490  -51.8638  -70.8659 H      1387        0    0.0000
   8327 H         881.9619  -49.8323  -69.3653 H      1387        0    0.0000
   8328 H         881.6100  -50.8568  -67.9779 H      1387        0    0.0000
   8329 C         883.6349  -51.0986  -68.7595 C.3    1388        0    0.0000
   8330 C         884.2825  -50.0616  -67.8351 C.3    1388        0    0.0000
   8331 H         883.7742  -52.1067  -68.3498 H      1388        0    0.0000
   8332 H         884.1259  -51.0866  -69.7405 H      1388        0    0.0000
   8333 H         884.1510  -49.0543  -68.2494 H      1388        0    0.0000
   8334 H         883.7858  -50.0673  -66.8570 H      1388        0    0.0000
   8335 C         885.8134  -50.3260  -67.6259 C.3    1389        0    0.0000
   8336 C         886.4577  -49.2977  -66.6896 C.3    1389        0    0.0000
   8337 H         885.9455  -51.3373  -67.2219 H      1389        0    0.0000
   8338 H         886.3119  -50.3093  -68.6030 H      1389        0    0.0000
   8339 H         886.3021  -48.2843  -67.0798 H      1389        0    0.0000
   8340 H         885.9770  -49.3332  -65.7041 H      1389        0    0.0000
   8341 C         887.9962  -49.5394  -66.5105 C.3    1390        0    0.0000
   8342 C         888.6383  -48.5185  -65.5647 C.3    1390        0    0.0000
   8343 H         888.1523  -50.5560  -66.1286 H      1390        0    0.0000
   8344 H         888.4781  -49.4953  -67.4950 H      1390        0    0.0000
   8345 H         888.5131  -47.5046  -65.9647 H      1390        0    0.0000
   8346 H         888.1329  -48.5377  -64.5912 H      1390        0    0.0000
   8347 C         890.1666  -48.7904  -65.3461 C.3    1391        0    0.0000
   8348 C         890.8053  -47.7786  -64.3883 C.3    1391        0    0.0000
   8349 H         890.2926  -49.8083  -64.9568 H      1391        0    0.0000
   8350 H         890.6738  -48.7599  -66.3184 H      1391        0    0.0000
   8351 H         890.4791  -47.9766  -63.3597 H      1391        0    0.0000
   8352 H         891.8969  -47.8874  -64.3992 H      1391        0    0.0000
   8353 C         890.4413  -46.2992  -64.7577 C.3    1392        0    0.0000
   8354 C         890.9492  -45.2981  -63.7142 C.3    1392        0    0.0000
   8355 H         890.8669  -46.0655  -65.7415 H      1392        0    0.0000
   8356 H         889.3519  -46.2177  -64.8583 H      1392        0    0.0000
   8357 H         890.9900  -44.2912  -64.1476 H      1392        0    0.0000
   8358 H         890.2517  -45.2493  -62.8689 H      1392        0    0.0000
   8359 C         892.3721  -45.6737  -63.1739 C.3    1393        0    0.0000
   8360 C         892.6089  -45.1550  -61.7513 C.3    1393        0    0.0000
   8361 H         892.4836  -46.7648  -63.1999 H      1393        0    0.0000
   8362 H         893.1284  -45.2635  -63.8546 H      1393        0    0.0000
   8363 H         892.7955  -44.0741  -61.7712 H      1393        0    0.0000
   8364 H         891.7103  -45.3083  -61.1406 H      1393        0    0.0000
   8365 C         893.8206  -45.8643  -61.0541 C.3    1394        0    0.0000
   8366 C         895.1078  -45.0372  -61.1439 C.3    1394        0    0.0000
   8367 H         893.5651  -46.0497  -60.0035 H      1394        0    0.0000
   8368 H         893.9711  -46.8462  -61.5198 H      1394        0    0.0000
   8369 H         895.1838  -44.5655  -62.1315 H      1394        0    0.0000
   8370 H         895.0848  -44.2244  -60.4075 H      1394        0    0.0000
   8371 C         896.3900  -45.9052  -60.8987 C.3    1395        0    0.0000
   8372 C         897.5078  -45.1101  -60.2150 C.3    1395        0    0.0000
   8373 H         896.1173  -46.7735  -60.2861 H      1395        0    0.0000
   8374 H         896.7415  -46.2967  -61.8613 H      1395        0    0.0000
   8375 H         897.0775  -44.3724  -59.5263 H      1395        0    0.0000
   8376 H         898.1302  -45.7806  -59.6096 H      1395        0    0.0000
   8377 C         898.4232  -44.3648  -61.2465 C.3    1396        0    0.0000
   8378 C         899.3608  -43.3587  -60.5701 C.3    1396        0    0.0000
   8379 H         899.0073  -45.1083  -61.8028 H      1396        0    0.0000
   8380 H         897.7867  -43.8523  -61.9785 H      1396        0    0.0000
   8381 H         899.4306  -42.4450  -61.1732 H      1396        0    0.0000
   8382 H         898.9545  -43.0624  -59.5951 H      1396        0    0.0000
   8383 C         900.8027  -43.9378  -60.3615 C.3    1397        0    0.0000
   8384 C         901.4849  -43.3629  -59.1152 C.3    1397        0    0.0000
   8385 H         900.7373  -45.0301  -60.2845 H      1397        0    0.0000
   8386 H         901.4035  -43.7202  -61.2532 H      1397        0    0.0000
   8387 H         901.2823  -42.2875  -59.0377 H      1397        0    0.0000
   8388 H         901.0706  -43.8274  -58.2117 H      1397        0    0.0000
   8389 C         903.0365  -43.5851  -59.1314 C.3    1398        0    0.0000
   8390 C         903.6824  -43.2714  -57.7773 C.3    1398        0    0.0000
   8391 H         903.2419  -44.6250  -59.4142 H      1398        0    0.0000
   8392 H         903.4760  -42.9532  -59.9132 H      1398        0    0.0000
   8393 H         902.9669  -43.4581  -56.9670 H      1398        0    0.0000
   8394 H         904.5359  -43.9386  -57.6041 H      1398        0    0.0000
   8395 C         904.1752  -41.7862  -57.6840 C.3    1399        0    0.0000
   8396 C         904.4181  -41.3447  -56.2365 C.3    1399        0    0.0000
   8397 H         905.0975  -41.6822  -58.2687 H      1399        0    0.0000
   8398 H         903.4282  -41.1355  -58.1554 H      1399        0    0.0000
   8399 H         903.9287  -40.3807  -56.0501 H      1399        0    0.0000
   8400 H         903.9683  -42.0658  -55.5427 H      1399        0    0.0000
   8401 C         905.9443  -41.2091  -55.9049 C.3    1400        0    0.0000
   8402 C         906.2005  -41.0534  -54.4019 C.3    1400        0    0.0000
   8403 H         906.4690  -42.0939  -56.2863 H      1400        0    0.0000
   8404 H         906.3484  -40.3451  -56.4469 H      1400        0    0.0000
   8405 H         905.5029  -40.3221  -53.9751 H      1400        0    0.0000
   8406 H         906.0134  -42.0044  -53.8879 H      1400        0    0.0000
   8407 C         907.6669  -40.5925  -54.0938 C.3    1401        0    0.0000
   8408 C         907.8494  -40.1759  -52.6302 C.3    1401        0    0.0000
   8409 H         908.3541  -41.4113  -54.3403 H      1401        0    0.0000
   8410 H         907.9216  -39.7568  -54.7573 H      1401        0    0.0000
   8411 H         906.9880  -39.5835  -52.2975 H      1401        0    0.0000
   8412 H         907.8874  -41.0646  -51.9880 H      1401        0    0.0000
   8413 C         909.1551  -39.3369  -52.4097 C.3    1402        0    0.0000
   8414 C         910.2131  -40.1077  -51.6124 C.3    1402        0    0.0000
   8415 H         909.5584  -39.0469  -53.3878 H      1402        0    0.0000
   8416 H         908.8944  -38.4075  -51.8883 H      1402        0    0.0000
   8417 H         909.7463  -40.6112  -50.7568 H      1402        0    0.0000
   8418 H         910.6562  -40.8933  -52.2369 H      1402        0    0.0000
   8419 C         911.3576  -39.1743  -51.0867 C.3    1403        0    0.0000
   8420 C         912.7196  -39.8771  -51.0722 C.3    1403        0    0.0000
   8421 H         911.4028  -38.2794  -51.7197 H      1403        0    0.0000
   8422 H         911.0995  -38.8330  -50.0766 H      1403        0    0.0000
   8423 H         912.6017  -40.9192  -50.7504 H      1403        0    0.0000
   8424 H         913.1390  -39.9057  -52.0855 H      1403        0    0.0000
   8425 C         913.7441  -39.1675  -50.1212 C.3    1404        0    0.0000
   8426 C         914.9134  -38.5423  -50.8899 C.3    1404        0    0.0000
   8427 H         913.2170  -38.3964  -49.5459 H      1404        0    0.0000
   8428 H         914.1194  -39.9001  -49.3960 H      1404        0    0.0000
   8429 H         915.1174  -39.1203  -51.7998 H      1404        0    0.0000
   8430 H         914.6511  -37.5274  -51.2136 H      1404        0    0.0000
   8431 C         916.2222  -38.4758  -50.0295 C.3    1405        0    0.0000
   8432 C         916.4776  -37.0727  -49.4681 C.3    1405        0    0.0000
   8433 H         916.1436  -39.2005  -49.2096 H      1405        0    0.0000
   8434 H         917.0696  -38.7928  -50.6499 H      1405        0    0.0000
   8435 H         916.7556  -36.3880  -50.2789 H      1405        0    0.0000
   8436 H         915.5590  -36.6739  -49.0200 H      1405        0    0.0000
   8437 C         917.6127  -37.0631  -48.3869 C.3    1406        0    0.0000
   8438 C         918.1733  -35.6571  -48.1458 C.3    1406        0    0.0000
   8439 H         917.2135  -37.4743  -47.4514 H      1406        0    0.0000
   8440 H         918.4151  -37.7376  -48.7105 H      1406        0    0.0000
   8441 H         918.2697  -35.1221  -49.0987 H      1406        0    0.0000
   8442 H         917.4783  -35.0760  -47.5271 H      1406        0    0.0000
   8443 C         919.5728  -35.6885  -47.4402 C.3    1407        0    0.0000
   8444 C         919.7161  -34.5862  -46.3849 C.3    1407        0    0.0000
   8445 H         919.7134  -36.6730  -46.9772 H      1407        0    0.0000
   8446 H         920.3553  -35.5839  -48.2020 H      1407        0    0.0000
   8447 H         919.4153  -33.6195  -46.8075 H      1407        0    0.0000
   8448 H         919.0438  -34.7839  -45.5408 H      1407        0    0.0000
   8449 C         921.1832  -34.4674  -45.8454 C.3    1408        0    0.0000
   8450 C         921.2979  -34.8901  -44.3766 C.3    1408        0    0.0000
   8451 H         921.8401  -35.0877  -46.4677 H      1408        0    0.0000
   8452 H         921.5214  -33.4309  -45.9660 H      1408        0    0.0000
   8453 H         921.2618  -34.0067  -43.7271 H      1408        0    0.0000
   8454 H         920.4441  -35.5205  -44.0988 H      1408        0    0.0000
   8455 C         922.6225  -35.6769  -44.0866 C.3    1409        0    0.0000
   8456 C         923.6324  -34.8411  -43.2924 C.3    1409        0    0.0000
   8457 H         922.3762  -36.5929  -43.5354 H      1409        0    0.0000
   8458 H         923.0627  -35.9921  -45.0407 H      1409        0    0.0000
   8459 H         923.1191  -34.0185  -42.7794 H      1409        0    0.0000
   8460 H         924.0994  -35.4561  -42.5131 H      1409        0    0.0000
   8461 C         924.7574  -34.2432  -44.2059 C.3    1410        0    0.0000
   8462 C         925.7620  -33.3994  -43.4133 C.3    1410        0    0.0000
   8463 H         925.2755  -35.0662  -44.7136 H      1410        0    0.0000
   8464 H         924.2902  -33.6340  -44.9895 H      1410        0    0.0000
   8465 H         925.8605  -32.4060  -43.8682 H      1410        0    0.0000
   8466 H         925.3973  -33.2428  -42.3906 H      1410        0    0.0000
   8467 C         927.1784  -34.0680  -43.3479 C.3    1411        0    0.0000
   8468 C         928.1699  -33.2479  -42.5151 C.3    1411        0    0.0000
   8469 H         927.0748  -35.0750  -42.9252 H      1411        0    0.0000
   8470 H         927.5581  -34.1926  -44.3695 H      1411        0    0.0000
   8471 H         929.1834  -33.3593  -42.9199 H      1411        0    0.0000
   8472 H         927.9212  -32.1812  -42.5772 H      1411        0    0.0000
   8473 C         928.1777  -33.6779  -41.0077 C.3    1412        0    0.0000
   8474 C         928.8087  -32.6135  -40.1033 C.3    1412        0    0.0000
   8475 H         927.1462  -33.8769  -40.6913 H      1412        0    0.0000
   8476 H         928.7244  -34.6243  -40.9128 H      1412        0    0.0000
   8477 H         928.7507  -31.6291  -40.5839 H      1412        0    0.0000
   8478 H         928.2485  -32.5386  -39.1630 H      1412        0    0.0000
   8479 C         930.3089  -32.9273  -39.7739 C.3    1413        0    0.0000
   8480 C         931.1658  -31.6586  -39.7030 C.3    1413        0    0.0000
   8481 H         930.3561  -33.4669  -38.8198 H      1413        0    0.0000
   8482 H         930.7045  -33.6062  -40.5396 H      1413        0    0.0000
   8483 H         931.6548  -31.4805  -40.6688 H      1413        0    0.0000
   8484 H         930.5305  -30.7861  -39.5060 H      1413        0    0.0000
   8485 C         932.2648  -31.7454  -38.5885 C.3    1414        0    0.0000
   8486 C         933.2839  -30.6049  -38.6875 C.3    1414        0    0.0000
   8487 H         931.7752  -31.7281  -37.6069 H      1414        0    0.0000
   8488 H         932.7746  -32.7135  -38.6693 H      1414        0    0.0000
   8489 H         933.5411  -30.4205  -39.7380 H      1414        0    0.0000
   8490 H         932.8467  -29.6753  -38.3024 H      1414        0    0.0000
   8491 C         934.5991  -30.9125  -37.8917 C.3    1415        0    0.0000
   8492 C         935.0940  -29.6993  -37.0966 C.3    1415        0    0.0000
   8493 H         934.4137  -31.7557  -37.2149 H      1415        0    0.0000
   8494 H         935.3717  -31.2397  -38.5985 H      1415        0    0.0000
   8495 H         935.2901  -28.8596  -37.7748 H      1415        0    0.0000
   8496 H         934.3171  -29.3651  -36.3978 H      1415        0    0.0000
   8497 C         936.4003  -30.0116  -36.2881 C.3    1416        0    0.0000
   8498 C         937.2597  -28.7618  -36.0676 C.3    1416        0    0.0000
   8499 H         936.1219  -30.4518  -35.3226 H      1416        0    0.0000
   8500 H         936.9763  -30.7737  -36.8275 H      1416        0    0.0000
   8501 H         937.2094  -28.1105  -36.9489 H      1416        0    0.0000
   8502 H         936.8683  -28.1805  -35.2235 H      1416        0    0.0000
   8503 C         938.7606  -29.1151  -35.7851 C.3    1417        0    0.0000
   8504 C         939.2991  -28.4072  -34.5369 C.3    1417        0    0.0000
   8505 H         938.8524  -30.2022  -35.6701 H      1417        0    0.0000
   8506 H         939.3597  -28.8394  -36.6618 H      1417        0    0.0000
   8507 H         939.0269  -27.3447  -34.5602 H      1417        0    0.0000
   8508 H         938.8381  -28.8309  -33.6360 H      1417        0    0.0000
   8509 C         940.8570  -28.5271  -34.4114 C.3    1418        0    0.0000
   8510 C         941.4206  -27.6345  -33.3002 C.3    1418        0    0.0000
   8511 H         941.1168  -29.5756  -34.2198 H      1418        0    0.0000
   8512 H         941.3108  -28.2610  -35.3742 H      1418        0    0.0000
   8513 H         941.1870  -26.5829  -33.5076 H      1418        0    0.0000
   8514 H         940.9449  -27.8801  -32.3428 H      1418        0    0.0000
   8515 C         942.9733  -27.7863  -33.1464 C.3    1419        0    0.0000
   8516 C         943.5221  -26.9761  -31.9668 C.3    1419        0    0.0000
   8517 H         943.2136  -28.8489  -33.0171 H      1419        0    0.0000
   8518 H         943.4540  -27.4658  -34.0790 H      1419        0    0.0000
   8519 H         943.4035  -25.9027  -32.1601 H      1419        0    0.0000
   8520 H         942.9480  -27.1979  -31.0586 H      1419        0    0.0000
   8521 C         945.0362  -27.2760  -31.6934 C.3    1420        0    0.0000
   8522 C         945.6618  -26.2685  -30.7224 C.3    1420        0    0.0000
   8523 H         945.1284  -28.2927  -31.2916 H      1420        0    0.0000
   8524 H         945.5770  -27.2642  -32.6478 H      1420        0    0.0000
   8525 H         945.5831  -25.2535  -31.1311 H      1420        0    0.0000
   8526 H         945.1117  -26.2695  -29.7732 H      1420        0    0.0000
   8527 C         947.1703  -26.5809  -30.4325 C.3    1421        0    0.0000
   8528 C         947.7889  -25.5885  -29.4417 C.3    1421        0    0.0000
   8529 H         947.2510  -27.6027  -30.0413 H      1421        0    0.0000
   8530 H         947.7239  -26.5614  -31.3794 H      1421        0    0.0000
   8531 H         947.6902  -24.5648  -29.8236 H      1421        0    0.0000
   8532 H         947.2479  -25.6225  -28.4879 H      1421        0    0.0000
   8533 C         949.3050  -25.8838  -29.1734 C.3    1422        0    0.0000
   8534 C         949.9293  -24.8777  -28.2003 C.3    1422        0    0.0000
   8535 H         949.4020  -26.9017  -28.7757 H      1422        0    0.0000
   8536 H         949.8431  -25.8665  -30.1292 H      1422        0    0.0000
   8537 H         950.1830  -23.9506  -28.7292 H      1422        0    0.0000
   8538 H         949.2051  -24.6082  -27.4217 H      1422        0    0.0000
   8539 C         951.2229  -25.4385  -27.5149 C.3    1423        0    0.0000
   8540 C         951.8378  -24.4388  -26.5291 C.3    1423        0    0.0000
   8541 H         950.9719  -26.3721  -26.9964 H      1423        0    0.0000
   8542 H         951.9520  -25.6964  -28.2930 H      1423        0    0.0000
   8543 H         951.0864  -23.6994  -26.2255 H      1423        0    0.0000
   8544 H         952.1559  -24.9577  -25.6164 H      1423        0    0.0000
   8545 C         953.0706  -23.6859  -27.1379 C.3    1424        0    0.0000
   8546 C         953.6402  -22.6343  -26.1795 C.3    1424        0    0.0000
   8547 H         953.8439  -24.4213  -27.3921 H      1424        0    0.0000
   8548 H         952.7657  -23.2113  -28.0789 H      1424        0    0.0000
   8549 H         953.9481  -21.7425  -26.7394 H      1424        0    0.0000
   8550 H         952.8661  -22.3108  -25.4727 H      1424        0    0.0000
   8551 C         954.8703  -23.1723  -25.3702 C.3    1425        0    0.0000
   8552 C         955.0257  -22.4720  -24.0158 C.3    1425        0    0.0000
   8553 H         954.7517  -24.2530  -25.2235 H      1425        0    0.0000
   8554 H         955.7772  -23.0336  -25.9716 H      1425        0    0.0000
   8555 H         955.5384  -21.5109  -24.1458 H      1425        0    0.0000
   8556 H         954.0386  -22.2478  -23.5927 H      1425        0    0.0000
   8557 C         955.8309  -23.3391  -22.9876 C.3    1426        0    0.0000
   8558 C         956.9612  -22.5479  -22.3200 C.3    1426        0    0.0000
   8559 H         955.1382  -23.7198  -22.2269 H      1426        0    0.0000
   8560 H         956.2404  -24.2143  -23.5071 H      1426        0    0.0000
   8561 H         957.6862  -23.2362  -21.8681 H      1426        0    0.0000
   8562 H         957.5070  -21.9645  -23.0719 H      1426        0    0.0000
   8563 C         956.4308  -21.5740  -21.2121 C.3    1427        0    0.0000
   8564 C         957.4288  -20.4543  -20.8966 C.3    1427        0    0.0000
   8565 H         955.4775  -21.1452  -21.5451 H      1427        0    0.0000
   8566 H         956.2161  -22.1530  -20.3054 H      1427        0    0.0000
   8567 H         957.1866  -19.5586  -21.4820 H      1427        0    0.0000
   8568 H         957.3533  -20.1699  -19.8398 H      1427        0    0.0000
   8569 C         958.9081  -20.8733  -21.2027 C.3    1428        0    0.0000
   8570 C         959.9243  -20.0155  -20.4408 C.3    1428        0    0.0000
   8571 H         959.0374  -21.9309  -20.9412 H      1428        0    0.0000
   8572 H         959.0822  -20.7923  -22.2828 H      1428        0    0.0000
   8573 H         959.8953  -18.9823  -20.8087 H      1428        0    0.0000
   8574 H         959.6620  -19.9783  -19.3762 H      1428        0    0.0000
   8575 C         961.3870  -20.5613  -20.5820 C.3    1429        0    0.0000
   8576 C         962.4079  -19.6835  -19.8496 C.3    1429        0    0.0000
   8577 H         961.4217  -21.5854  -20.1901 H      1429        0    0.0000
   8578 H         961.6401  -20.6231  -21.6477 H      1429        0    0.0000
   8579 H         962.1226  -18.6273  -19.9307 H      1429        0    0.0000
   8580 H         962.4142  -19.9268  -18.7798 H      1429        0    0.0000
   8581 C         963.8586  -19.8602  -20.4166 C.3    1430        0    0.0000
   8582 C         964.9323  -19.4428  -19.4056 C.3    1430        0    0.0000
   8583 H         964.0005  -20.9093  -20.7044 H      1430        0    0.0000
   8584 H         963.9545  -19.2662  -21.3339 H      1430        0    0.0000
   8585 H         964.5534  -19.5637  -18.3831 H      1430        0    0.0000
   8586 H         965.8087  -20.0964  -19.4962 H      1430        0    0.0000
   8587 C         965.3881  -17.9559  -19.6029 C.3    1431        0    0.0000
   8588 C         965.6149  -17.2360  -18.2691 C.3    1431        0    0.0000
   8589 H         966.3097  -17.9446  -20.1980 H      1431        0    0.0000
   8590 H         964.6271  -17.4278  -20.1908 H      1431        0    0.0000
   8591 H         965.4573  -16.1573  -18.3923 H      1431        0    0.0000
   8592 H         964.8828  -17.5786  -17.5274 H      1431        0    0.0000
   8593 C         967.0572  -17.4744  -17.7030 C.3    1432        0    0.0000
   8594 C         967.0526  -17.7354  -16.1927 C.3    1432        0    0.0000
   8595 H         967.5079  -18.3243  -18.2302 H      1432        0    0.0000
   8596 H         967.6760  -16.5978  -17.9313 H      1432        0    0.0000
   8597 H         966.7510  -16.8279  -15.6550 H      1432        0    0.0000
   8598 H         966.3132  -18.5076  -15.9466 H      1432        0    0.0000
   8599 C         968.4559  -18.1929  -15.6645 C.3    1433        0    0.0000
   8600 C         969.0410  -17.2103  -14.6442 C.3    1433        0    0.0000
   8601 H         968.3569  -19.1883  -15.2142 H      1433        0    0.0000
   8602 H         969.1372  -18.2994  -16.5178 H      1433        0    0.0000
   8603 H         968.6860  -16.1938  -14.8544 H      1433        0    0.0000
   8604 H         968.6921  -17.4635  -13.6353 H      1433        0    0.0000
   8605 C         970.6086  -17.2097  -14.6514 C.3    1434        0    0.0000
   8606 C         971.1940  -16.2511  -13.6086 C.3    1434        0    0.0000
   8607 H         970.9634  -18.2309  -14.4646 H      1434        0    0.0000
   8608 H         970.9575  -16.9334  -15.6541 H      1434        0    0.0000
   8609 H         971.3281  -15.2545  -14.0472 H      1434        0    0.0000
   8610 H         970.4956  -16.1350  -12.7705 H      1434        0    0.0000
   8611 C         972.5728  -16.7481  -13.0523 C.3    1435        0    0.0000
   8612 C         973.5146  -15.5876  -12.7128 C.3    1435        0    0.0000
   8613 H         972.3940  -17.3608  -12.1600 H      1435        0    0.0000
   8614 H         973.0386  -17.4050  -13.7974 H      1435        0    0.0000
   8615 H         973.8455  -15.0901  -13.6329 H      1435        0    0.0000
   8616 H         972.9830  -14.8327  -12.1203 H      1435        0    0.0000
   8617 C         974.7766  -16.0612  -11.9126 C.3    1436        0    0.0000
   8618 C         975.3643  -14.9456  -11.0414 C.3    1436        0    0.0000
   8619 H         974.4978  -16.9189  -11.2880 H      1436        0    0.0000
   8620 H         975.5312  -16.4208  -12.6230 H      1436        0    0.0000
   8621 H         974.8920  -14.9532  -10.0512 H      1436        0    0.0000
   8622 H         976.4357  -15.1186  -10.8809 H      1436        0    0.0000
   8623 C         975.1719  -13.5278  -11.6820 C.3    1437        0    0.0000
   8624 C         975.8178  -12.4192  -10.8436 C.3    1437        0    0.0000
   8625 H         975.6013  -13.5346  -12.6915 H      1437        0    0.0000
   8626 H         974.0981  -13.3348  -11.7976 H      1437        0    0.0000
   8627 H         975.7681  -11.4639  -11.3809 H      1437        0    0.0000
   8628 H         975.2623  -12.2834   -9.9075 H      1437        0    0.0000
   8629 C         977.3160  -12.7292  -10.5018 C.3    1438        0    0.0000
   8630 C         977.7314  -12.1591   -9.1411 C.3    1438        0    0.0000
   8631 H         977.4642  -13.8161  -10.5154 H      1438        0    0.0000
   8632 H         977.9524  -12.3146  -11.2935 H      1438        0    0.0000
   8633 H         977.4200  -11.1101   -9.0619 H      1438        0    0.0000
   8634 H         977.2214  -12.7008   -8.3348 H      1438        0    0.0000
   8635 C         979.2792  -12.2458   -8.9080 C.3    1439        0    0.0000
   8636 C         979.6374  -13.1318   -7.7097 C.3    1439        0    0.0000
   8637 H         979.7526  -12.6346   -9.8181 H      1439        0    0.0000
   8638 H         979.6714  -11.2325   -8.7572 H      1439        0    0.0000
   8639 H         979.1882  -12.7264   -6.7947 H      1439        0    0.0000
   8640 H         979.2201  -14.1370   -7.8470 H      1439        0    0.0000
   8641 C         981.1865  -13.2519   -7.5018 C.3    1440        0    0.0000
   8642 C         981.6501  -12.5947   -6.1971 C.3    1440        0    0.0000
   8643 H         981.4628  -14.3136   -7.5070 H      1440        0    0.0000
   8644 H         981.6950  -12.7898   -8.3571 H      1440        0    0.0000
   8645 H         980.8992  -11.8733   -5.8517 H      1440        0    0.0000
   8646 H         981.7463  -13.3512   -5.4084 H      1440        0    0.0000
   8647 C         983.0234  -11.8561   -6.3591 C.3    1441        0    0.0000
   8648 C         983.8083  -11.7940   -5.0441 C.3    1441        0    0.0000
   8649 H         983.6143  -12.3724   -7.1258 H      1441        0    0.0000
   8650 H         982.8374  -10.8422   -6.7344 H      1441        0    0.0000
   8651 H         983.5467  -10.8823   -4.4927 H      1441        0    0.0000
   8652 H         983.5339  -12.6401   -4.4020 H      1441        0    0.0000
   8653 C         985.3585  -11.8173   -5.2758 C.3    1442        0    0.0000
   8654 C         986.1241  -11.1051   -4.1552 C.3    1442        0    0.0000
   8655 H         985.6888  -12.8606   -5.3529 H      1442        0    0.0000
   8656 H         985.5789  -11.3450   -6.2412 H      1442        0    0.0000
   8657 H         985.9086  -10.0296   -4.1771 H      1442        0    0.0000
   8658 H         985.7893  -11.4737   -3.1777 H      1442        0    0.0000
   8659 C         987.6737  -11.3123   -4.2697 C.3    1443        0    0.0000
   8660 C         988.4272  -10.7367   -3.0655 C.3    1443        0    0.0000
   8661 H         987.8809  -12.3853   -4.3652 H      1443        0    0.0000
   8662 H         988.0262  -10.8398   -5.1949 H      1443        0    0.0000
   8663 H         988.2966  -11.3891   -2.1932 H      1443        0    0.0000
   8664 H         989.5034  -10.7037   -3.2759 H      1443        0    0.0000
   8665 C         987.9404   -9.2936   -2.6946 C.3    1444        0    0.0000
   8666 C         988.7912   -8.6599   -1.5883 C.3    1444        0    0.0000
   8667 H         987.9686   -8.6683   -3.5955 H      1444        0    0.0000
   8668 H         986.8908   -9.3445   -2.3793 H      1444        0    0.0000
   8669 H         989.3810   -7.8297   -1.9963 H      1444        0    0.0000
   8670 H         988.1429   -8.2344   -0.8123 H      1444        0    0.0000
   8671 C         989.7651   -9.6924   -0.9227 C.3    1445        0    0.0000
   8672 C         990.8883   -9.0077   -0.1361 C.3    1445        0    0.0000
   8673 H         989.1866  -10.3474   -0.2595 H      1445        0    0.0000
   8674 H         990.1902  -10.3328   -1.7054 H      1445        0    0.0000
   8675 H         991.5364   -8.4445   -0.8189 H      1445        0    0.0000
   8676 H         990.4651   -8.2807    0.5682 H      1445        0    0.0000
   8677 C         991.7651  -10.0332    0.6621 C.3    1446        0    0.0000
   8678 C         993.0523   -9.4003    1.2022 C.3    1446        0    0.0000
   8679 H         991.1696  -10.4390    1.4894 H      1446        0    0.0000
   8680 H         992.0079  -10.8775    0.0051 H      1446        0    0.0000
   8681 H         993.4553  -10.0083    2.0216 H      1446        0    0.0000
   8682 H         993.8193   -9.3803    0.4180 H      1446        0    0.0000
   8683 C         992.8231   -7.9394    1.7223 C.3    1447        0    0.0000
   8684 C         994.1302   -7.1445    1.8161 C.3    1447        0    0.0000
   8685 H         992.1211   -7.4307    1.0500 H      1447        0    0.0000
   8686 H         992.3398   -7.9860    2.7060 H      1447        0    0.0000
   8687 H         994.8466   -7.5091    1.0695 H      1447        0    0.0000
   8688 H         993.9454   -6.0880    1.5857 H      1447        0    0.0000
   8689 C         994.7859   -7.2448    3.2365 C.3    1448        0    0.0000
   8690 C         996.3109   -7.1007    3.1839 C.3    1448        0    0.0000
   8691 H         994.3566   -6.4668    3.8799 H      1448        0    0.0000
   8692 H         994.5144   -8.2089    3.6840 H      1448        0    0.0000
   8693 H         996.7824   -8.0913    3.1802 H      1448        0    0.0000
   8694 H         996.6100   -6.6059    2.2516 H      1448        0    0.0000
   8695 C         996.8721   -6.2785    4.3949 C.3    1449        0    0.0000
   8696 C         998.3917   -6.0941    4.3174 C.3    1449        0    0.0000
   8697 H         996.3753   -5.3007    4.4190 H      1449        0    0.0000
   8698 H         996.6025   -6.7919    5.3262 H      1449        0    0.0000
   8699 H         998.8989   -7.0060    4.6561 H      1449        0    0.0000
   8700 H         998.6982   -5.9311    3.2768 H      1449        0    0.0000
   8701 C         998.8888   -4.8873    5.1857 C.3    1450        0    0.0000
   8702 C        1000.3422   -5.0590    5.6410 C.3    1450        0    0.0000
   8703 H         998.7842   -3.9646    4.6015 H      1450        0    0.0000
   8704 H         998.2311   -4.7844    6.0576 H      1450        0    0.0000
   8705 H        1000.4736   -6.0380    6.1185 H      1450        0    0.0000
   8706 H        1001.0131   -5.0390    4.7733 H      1450        0    0.0000
   8707 C        1000.7852   -3.9422    6.6480 C.3    1451        0    0.0000
   8708 C        1002.2841   -4.0043    6.9617 C.3    1451        0    0.0000
   8709 H        1000.5296   -2.9629    6.2249 H      1451        0    0.0000
   8710 H        1000.2029   -4.0479    7.5718 H      1451        0    0.0000
   8711 H        1002.7963   -4.6376    6.2268 H      1451        0    0.0000
   8712 H        1002.7274   -3.0041    6.8789 H      1451        0    0.0000
   8713 C        1002.5679   -4.5655    8.3976 C.3    1452        0    0.0000
   8714 C        1004.0469   -4.4520    8.7838 C.3    1452        0    0.0000
   8715 H        1001.9478   -4.0198    9.1195 H      1452        0    0.0000
   8716 H        1002.2484   -5.6142    8.4369 H      1452        0    0.0000
   8717 H        1004.5180   -3.6299    8.2308 H      1452        0    0.0000
   8718 H        1004.1398   -4.2088    9.8495 H      1452        0    0.0000
   8719 C        1004.8391   -5.7738    8.4961 C.3    1453        0    0.0000
   8720 C        1006.2936   -5.5037    8.0958 C.3    1453        0    0.0000
   8721 H        1004.8067   -6.4074    9.3911 H      1453        0    0.0000
   8722 H        1004.3263   -6.3272    7.6997 H      1453        0    0.0000
   8723 H        1006.8868   -6.4216    8.1911 H      1453        0    0.0000
   8724 H        1006.3442   -5.2040    7.0416 H      1453        0    0.0000
   8725 C        1006.9526   -4.3830    8.9718 C.3    1454        0    0.0000
   8726 C        1008.2727   -4.8399    9.6026 C.3    1454        0    0.0000
   8727 H        1007.1213   -3.4982    8.3456 H      1454        0    0.0000
   8728 H        1006.2449   -4.0844    9.7550 H      1454        0    0.0000
   8729 H        1008.0729   -5.4749   10.4745 H      1454        0    0.0000
   8730 H        1008.8381   -5.4524    8.8896 H      1454        0    0.0000
   8731 C        1009.1660   -3.6323   10.0511 C.3    1455        0    0.0000
   8732 C        1009.1174   -3.4049   11.5661 C.3    1455        0    0.0000
   8733 H        1010.1989   -3.8187    9.7318 H      1455        0    0.0000
   8734 H        1008.8313   -2.7300    9.5244 H      1455        0    0.0000
   8735 H        1008.3892   -2.6200   11.8054 H      1455        0    0.0000
   8736 H        1008.7759   -4.3162   12.0725 H      1455        0    0.0000
   8737 C        1010.5130   -2.9947   12.1504 C.3    1456        0    0.0000
   8738 C        1010.4124   -1.8094   13.1170 C.3    1456        0    0.0000
   8739 H        1010.9506   -3.8609   12.6618 H      1456        0    0.0000
   8740 H        1011.1851   -2.7465   11.3196 H      1456        0    0.0000
   8741 H        1009.9674   -0.9455   12.6078 H      1456        0    0.0000
   8742 H        1009.7464   -2.0604   13.9519 H      1456        0    0.0000
   8743 C        1011.8095   -1.3922   13.6928 C.3    1457        0    0.0000
   8744 C        1012.0491    0.1187   13.5981 C.3    1457        0    0.0000
   8745 H        1011.8727   -1.7183   14.7384 H      1457        0    0.0000
   8746 H        1012.5928   -1.9323   13.1465 H      1457        0    0.0000
   8747 H        1011.5734    0.5190   12.6942 H      1457        0    0.0000
   8748 H        1011.5832    0.6276   14.4510 H      1457        0    0.0000
   8749 C        1013.5748    0.4775   13.5675 C.3    1458        0    0.0000
   8750 C        1014.1600    0.6467   14.9739 C.3    1458        0    0.0000
   8751 H        1014.1130   -0.3121   13.0287 H      1458        0    0.0000
   8752 H        1013.7095    1.4007   12.9905 H      1458        0    0.0000
   8753 H        1014.1808    1.7089   15.2474 H      1458        0    0.0000
   8754 H        1013.5207    0.1443   15.7103 H      1458        0    0.0000
   8755 C        1015.6122    0.0674   15.0868 C.3    1459        0    0.0000
   8756 C        1016.0936   -0.0150   16.5396 C.3    1459        0    0.0000
   8757 H        1015.6324   -0.9284   14.6269 H      1459        0    0.0000
   8758 H        1016.2914    0.6988   14.5007 H      1459        0    0.0000
   8759 H        1016.4967    0.9545   16.8577 H      1459        0    0.0000
   8760 H        1015.2493   -0.2382   17.2035 H      1459        0    0.0000
   8761 C        1017.1965   -1.1109   16.7389 C.3    1460        0    0.0000
   8762 C        1018.5193   -0.5197   17.2387 C.3    1460        0    0.0000
   8763 H        1016.8266   -1.8596   17.4504 H      1460        0    0.0000
   8764 H        1017.3535   -1.6320   15.7864 H      1460        0    0.0000
   8765 H        1019.3616   -0.9802   16.7076 H      1460        0    0.0000
   8766 H        1018.5580    0.5545   17.0192 H      1460        0    0.0000
   8767 C        1018.7188   -0.7281   18.7795 C.3    1461        0    0.0000
   8768 C        1019.7516    0.2396   19.3676 C.3    1461        0    0.0000
   8769 H        1017.7524   -0.5977   19.2820 H      1461        0    0.0000
   8770 H        1019.0298   -1.7647   18.9587 H      1461        0    0.0000
   8771 H        1019.2569    1.1595   19.7031 H      1461        0    0.0000
   8772 H        1020.2230   -0.2054   20.2526 H      1461        0    0.0000
   8773 C        1020.8696    0.6151   18.3347 C.3    1462        0    0.0000
   8774 C        1021.8391    1.6669   18.8849 C.3    1462        0    0.0000
   8775 H        1021.4177   -0.2948   18.0606 H      1462        0    0.0000
   8776 H        1020.3942    0.9847   17.4178 H      1462        0    0.0000
   8777 H        1022.1323    2.3616   18.0881 H      1462        0    0.0000
   8778 H        1021.3442    2.2663   19.6591 H      1462        0    0.0000
   8779 C        1023.1317    1.0225   19.4943 C.3    1463        0    0.0000
   8780 C        1024.0126    2.0527   20.2098 C.3    1463        0    0.0000
   8781 H        1022.8361    0.2302   20.1931 H      1463        0    0.0000
   8782 H        1023.6982    0.5375   18.6895 H      1463        0    0.0000
   8783 H        1023.9911    3.0066   19.6684 H      1463        0    0.0000
   8784 H        1023.6185    2.2516   21.2142 H      1463        0    0.0000
   8785 C        1025.5007    1.5766   20.3360 C.3    1464        0    0.0000
   8786 C        1026.1481    2.0351   21.6474 C.3    1464        0    0.0000
   8787 H        1025.5291    0.4822   20.2652 H      1464        0    0.0000
   8788 H        1026.0693    1.9624   19.4808 H      1464        0    0.0000
   8789 H        1025.5935    2.8855   22.0634 H      1464        0    0.0000
   8790 H        1026.0981    1.2317   22.3927 H      1464        0    0.0000
   8791 C        1027.6465    2.4540   21.4557 C.3    1465        0    0.0000
   8792 C        1028.1812    3.2599   22.6447 C.3    1465        0    0.0000
   8793 H        1028.2509    1.5498   21.3120 H      1465        0    0.0000
   8794 H        1027.7341    3.0415   20.5333 H      1465        0    0.0000
   8795 H        1028.1229    4.3338   22.4279 H      1465        0    0.0000
   8796 H        1027.5576    3.0830   23.5299 H      1465        0    0.0000
   8797 C        1029.6655    2.8940   22.9911 C.3    1466        0    0.0000
   8798 C        1030.0685    3.3672   24.3921 C.3    1466        0    0.0000
   8799 H        1029.7897    1.8070   22.9110 H      1466        0    0.0000
   8800 H        1030.3252    3.3428   22.2382 H      1466        0    0.0000
   8801 H        1029.8259    4.4301   24.5144 H      1466        0    0.0000
   8802 H        1029.4944    2.8234   25.1525 H      1466        0    0.0000
   8803 C        1031.5975    3.1625   24.6713 C.3    1467        0    0.0000
   8804 C        1032.2161    4.3504   25.4165 C.3    1467        0    0.0000
   8805 H        1031.7305    2.2425   25.2539 H      1467        0    0.0000
   8806 H        1032.1139    3.0078   23.7158 H      1467        0    0.0000
   8807 H        1032.3057    5.2117   24.7430 H      1467        0    0.0000
   8808 H        1031.5604    4.6609   26.2395 H      1467        0    0.0000
   8809 C        1033.6326    4.0145   25.9982 C.3    1468        0    0.0000
   8810 C        1033.9915    4.8968   27.1989 C.3    1468        0    0.0000
   8811 H        1033.6537    2.9569   26.2889 H      1468        0    0.0000
   8812 H        1034.3792    4.1380   25.2041 H      1468        0    0.0000
   8813 H        1033.1168    5.0207   27.8495 H      1468        0    0.0000
   8814 H        1034.7677    4.4118   27.8036 H      1468        0    0.0000
   8815 C        1034.5020    6.3136   26.7635 C.3    1469        0    0.0000
   8816 C        1035.2457    7.0353   27.8928 C.3    1469        0    0.0000
   8817 H        1035.1592    6.2005   25.8925 H      1469        0    0.0000
   8818 H        1033.6439    6.9130   26.4350 H      1469        0    0.0000
   8819 H        1034.9478    8.0905   27.9251 H      1469        0    0.0000
   8820 H        1034.9714    6.6006   28.8619 H      1469        0    0.0000
   8821 C        1036.8024    6.9546   27.7254 C.3    1470        0    0.0000
   8822 C        1037.5287    6.8852   29.0732 C.3    1470        0    0.0000
   8823 H        1037.0477    6.0732   27.1200 H      1470        0    0.0000
   8824 H        1037.1429    7.8304   27.1591 H      1470        0    0.0000
   8825 H        1037.1002    7.6167   29.7695 H      1470        0    0.0000
   8826 H        1037.3856    5.8968   29.5271 H      1470        0    0.0000
   8827 C        1039.0659    7.1599   28.9345 C.3    1471        0    0.0000
   8828 C        1039.7233    7.4765   30.2824 C.3    1471        0    0.0000
   8829 H        1039.5425    6.2821   28.4807 H      1471        0    0.0000
   8830 H        1039.2146    7.9944   28.2382 H      1471        0    0.0000
   8831 H        1040.4205    8.3164   30.1727 H      1471        0    0.0000
   8832 H        1038.9623    7.7917   31.0072 H      1471        0    0.0000
   8833 C        1040.5005    6.2474   30.8677 C.3    1472        0    0.0000
   8834 C        1041.4260    6.6424   32.0237 C.3    1472        0    0.0000
   8835 H        1039.7740    5.4984   31.2065 H      1472        0    0.0000
   8836 H        1041.0819    5.7809   30.0628 H      1472        0    0.0000
   8837 H        1040.8424    7.0947   32.8351 H      1472        0    0.0000
   8838 H        1041.9080    5.7499   32.4417 H      1472        0    0.0000
   8839 C        1042.5372    7.6537   31.5759 C.3    1473        0    0.0000
   8840 C        1043.3579    8.1767   32.7599 C.3    1473        0    0.0000
   8841 H        1043.1956    7.1578   30.8517 H      1473        0    0.0000
   8842 H        1042.0624    8.4903   31.0486 H      1473        0    0.0000
   8843 H        1044.0972    8.9083   32.4112 H      1473        0    0.0000
   8844 H        1042.7045    8.7018   33.4677 H      1473        0    0.0000
   8845 C        1044.1046    7.0265   33.5194 C.3    1474        0    0.0000
   8846 C        1044.9363    7.5510   34.6952 C.3    1474        0    0.0000
   8847 H        1043.3643    6.2999   33.8768 H      1474        0    0.0000
   8848 H        1044.7502    6.4948   32.8095 H      1474        0    0.0000
   8849 H        1044.3942    8.3531   35.2113 H      1474        0    0.0000
   8850 H        1045.0929    6.7525   35.4310 H      1474        0    0.0000
   8851 C        1046.3326    8.0979   34.2380 C.3    1475        0    0.0000
   8852 C        1046.8284    9.2420   35.1291 C.3    1475        0    0.0000
   8853 H        1047.0558    7.2731   34.2476 H      1475        0    0.0000
   8854 H        1046.2560    8.4376   33.1976 H      1475        0    0.0000
   8855 H        1046.0485   10.0073   35.2274 H      1475        0    0.0000
   8856 H        1047.0333    8.8695   36.1405 H      1475        0    0.0000
   8857 C        1048.1274    9.9141   34.5653 C.3    1476        0    0.0000
   8858 C        1048.9685   10.5679   35.6673 C.3    1476        0    0.0000
   8859 H        1048.7200    9.1542   34.0410 H      1476        0    0.0000
   8860 H        1047.8417   10.6630   33.8160 H      1476        0    0.0000
   8861 H        1049.3588   11.5327   35.3202 H      1476        0    0.0000
   8862 H        1048.3425   10.7781   36.5434 H      1476        0    0.0000
   8863 C        1050.1718    9.6661   36.1105 C.3    1477        0    0.0000
   8864 C        1050.7679   10.1103   37.4507 C.3    1477        0    0.0000
   8865 H        1049.8285    8.6263   36.1778 H      1477        0    0.0000
   8866 H        1050.9412    9.6939   35.3289 H      1477        0    0.0000
   8867 H        1051.8633   10.0625   37.4095 H      1477        0    0.0000
   8868 H        1050.5057   11.1567   37.6508 H      1477        0    0.0000
   8869 C        1050.2682    9.2268   38.6453 C.3    1478        0    0.0000
   8870 C        1050.2111   10.0088   39.9621 C.3    1478        0    0.0000
   8871 H        1049.2753    8.8296   38.4002 H      1478        0    0.0000
   8872 H        1050.9360    8.3627   38.7497 H      1478        0    0.0000
   8873 H        1049.7472   10.9892   39.7975 H      1478        0    0.0000
   8874 H        1049.5802    9.4795   40.6870 H      1478        0    0.0000
   8875 C        1051.6321   10.2211   40.5892 C.3    1479        0    0.0000
   8876 C        1051.9503   11.7026   40.8190 C.3    1479        0    0.0000
   8877 H        1051.6852    9.6732   41.5382 H      1479        0    0.0000
   8878 H        1052.3821    9.7739   39.9250 H      1479        0    0.0000
   8879 H        1051.9418   12.2417   39.8635 H      1479        0    0.0000
   8880 H        1051.1757   12.1608   41.4461 H      1479        0    0.0000
   8881 C        1053.3445   11.9115   41.5046 C.3    1480        0    0.0000
   8882 C        1054.4259   12.3357   40.5046 C.3    1480        0    0.0000
   8883 H        1053.2416   12.6691   42.2913 H      1480        0    0.0000
   8884 H        1053.6371   10.9785   42.0020 H      1480        0    0.0000
   8885 H        1054.4672   11.6240   39.6708 H      1480        0    0.0000
   8886 H        1054.1763   13.3128   40.0728 H      1480        0    0.0000
   8887 C        1055.8447   12.4226   41.1653 C.3    1481        0    0.0000
   8888 C        1056.9337   11.7960   40.2874 C.3    1481        0    0.0000
   8889 H        1056.0796   13.4762   41.3613 H      1481        0    0.0000
   8890 H        1055.8123   11.9204   42.1402 H      1481        0    0.0000
   8891 H        1056.7821   10.7118   40.2166 H      1481        0    0.0000
   8892 H        1056.8668   12.1908   39.2660 H      1481        0    0.0000
   8893 C        1058.3743   12.0698   40.8417 C.3    1482        0    0.0000
   8894 C        1058.9456   10.8637   41.5955 C.3    1482        0    0.0000
   8895 H        1059.0309   12.3352   40.0039 H      1482        0    0.0000
   8896 H        1058.3383   12.9442   41.5032 H      1482        0    0.0000
   8897 H        1058.4965   10.7972   42.5942 H      1482        0    0.0000
   8898 H        1058.6866    9.9354   41.0712 H      1482        0    0.0000
   8899 C        1060.5040   10.9412   41.7463 C.3    1483        0    0.0000
   8900 C        1060.9285   11.5175   43.1015 C.3    1483        0    0.0000
   8901 H        1060.9220    9.9350   41.6179 H      1483        0    0.0000
   8902 H        1060.9078   11.5564   40.9327 H      1483        0    0.0000
   8903 H        1060.1162   11.4032   43.8300 H      1483        0    0.0000
   8904 H        1061.7863   10.9588   43.4960 H      1483        0    0.0000
   8905 C        1061.3132   13.0343   43.0078 C.3    1484        0    0.0000
   8906 C        1062.1228   13.5043   44.2214 C.3    1484        0    0.0000
   8907 H        1061.8868   13.1973   42.0869 H      1484        0    0.0000
   8908 H        1060.3947   13.6271   42.9158 H      1484        0    0.0000
   8909 H        1062.3623   14.5705   44.1236 H      1484        0    0.0000
   8910 H        1061.5259   13.3981   45.1357 H      1484        0    0.0000
   8911 C        1063.4575   12.7001   44.3928 C.3    1485        0    0.0000
   8912 C        1064.2671   13.1698   45.6064 C.3    1485        0    0.0000
   8913 H        1063.2178   11.6339   44.4904 H      1485        0    0.0000
   8914 H        1064.0543   12.8064   43.4784 H      1485        0    0.0000
   8915 H        1063.6156   13.7043   46.3092 H      1485        0    0.0000
   8916 H        1064.6710   12.3048   46.1469 H      1485        0    0.0000
   8917 C        1065.4530   14.1112   45.2011 C.3    1486        0    0.0000
   8918 C        1065.9829   14.9221   46.3890 C.3    1486        0    0.0000
   8919 H        1066.2583   13.5015   44.7729 H      1486        0    0.0000
   8920 H        1065.1128   14.7867   44.4066 H      1486        0    0.0000
   8921 H        1066.0601   15.9819   46.1166 H      1486        0    0.0000
   8922 H        1065.2793   14.8630   47.2286 H      1486        0    0.0000
   8923 C        1067.3881   14.4209   46.8709 C.3    1487        0    0.0000
   8924 C        1067.7505   14.9563   48.2606 C.3    1487        0    0.0000
   8925 H        1067.3887   13.3238   46.8787 H      1487        0    0.0000
   8926 H        1068.1442   14.7312   46.1392 H      1487        0    0.0000
   8927 H        1067.8113   16.0514   48.2377 H      1487        0    0.0000
   8928 H        1066.9630   14.6994   48.9799 H      1487        0    0.0000
   8929 C        1069.1149   14.3854   48.7799 C.3    1488        0    0.0000
   8930 C        1069.9580   15.4506   49.4895 C.3    1488        0    0.0000
   8931 H        1068.9120   13.5504   49.4619 H      1488        0    0.0000
   8932 H        1069.6709   13.9702   47.9302 H      1488        0    0.0000
   8933 H        1070.1276   16.3033   48.8205 H      1488        0    0.0000
   8934 H        1069.4180   15.8377   50.3625 H      1488        0    0.0000
   8935 C        1071.3458   14.8938   49.9598 C.3    1489        0    0.0000
   8936 C        1072.2078   15.9710   50.6277 C.3    1489        0    0.0000
   8937 H        1071.1760   14.0629   50.6556 H      1489        0    0.0000
   8938 H        1071.8715   14.4759   49.0923 H      1489        0    0.0000
   8939 H        1072.7616   16.5347   49.8669 H      1489        0    0.0000
   8940 H        1071.5687   16.6926   51.1515 H      1489        0    0.0000
   8941 C        1073.2292   15.3646   51.6507 C.3    1490        0    0.0000
   8942 C        1074.3934   16.3176   51.9433 C.3    1490        0    0.0000
   8943 H        1072.6980   15.1232   52.5796 H      1490        0    0.0000
   8944 H        1073.6105   14.4170   51.2503 H      1490        0    0.0000
   8945 H        1074.8854   16.6091   51.0072 H      1490        0    0.0000
   8946 H        1074.0177   17.2405   52.4025 H      1490        0    0.0000
   8947 C        1075.4603   15.6771   52.8965 C.3    1491        0    0.0000
   8948 C        1076.5238   16.6875   53.3405 C.3    1491        0    0.0000
   8949 H        1074.9475   15.2613   53.7726 H      1491        0    0.0000
   8950 H        1075.9353   14.8338   52.3798 H      1491        0    0.0000
   8951 H        1077.0128   17.1289   52.4633 H      1491        0    0.0000
   8952 H        1076.0526   17.5136   53.8875 H      1491        0    0.0000
   8953 C        1077.6180   16.0356   54.2543 C.3    1492        0    0.0000
   8954 C        1078.8276   16.9547   54.4581 C.3    1492        0    0.0000
   8955 H        1077.1674   15.7867   55.2230 H      1492        0    0.0000
   8956 H        1077.9373   15.0883   53.8026 H      1492        0    0.0000
   8957 H        1079.1736   17.3408   53.4913 H      1492        0    0.0000
   8958 H        1078.5411   17.8254   55.0609 H      1492        0    0.0000
   8959 C        1080.0190   16.2207   55.1648 C.3    1493        0    0.0000
   8960 C        1081.0544   17.2014   55.7263 C.3    1493        0    0.0000
   8961 H        1079.6195   15.5932   55.9711 H      1493        0    0.0000
   8962 H        1080.4944   15.5434   54.4445 H      1493        0    0.0000
   8963 H        1080.5614   18.1294   56.0416 H      1493        0    0.0000
   8964 H        1081.5284   16.7772   56.6201 H      1493        0    0.0000
   8965 C        1082.1692   17.5514   54.6813 C.3    1494        0    0.0000
   8966 C        1082.9968   18.7712   55.1012 C.3    1494        0    0.0000
   8967 H        1082.8223   16.6790   54.5554 H      1494        0    0.0000
   8968 H        1081.6968   17.7344   53.7081 H      1494        0    0.0000
   8969 H        1083.2246   19.3909   54.2249 H      1494        0    0.0000
   8970 H        1082.4181   19.3995   55.7896 H      1494        0    0.0000
   8971 C        1084.3419   18.3657   55.7967 C.3    1495        0    0.0000
   8972 C        1084.5070   19.0242   57.1707 C.3    1495        0    0.0000
   8973 H        1084.3730   17.2736   55.8968 H      1495        0    0.0000
   8974 H        1085.1769   18.6460   55.1425 H      1495        0    0.0000
   8975 H        1084.0200   20.0074   57.1775 H      1495        0    0.0000
   8976 H        1084.0088   18.4207   57.9395 H      1495        0    0.0000
   8977 C        1086.0129   19.2036   57.5666 C.3    1496        0    0.0000
   8978 C        1086.2264   19.1403   59.0831 C.3    1496        0    0.0000
   8979 H        1086.6044   18.4238   57.0709 H      1496        0    0.0000
   8980 H        1086.3694   20.1650   57.1765 H      1496        0    0.0000
   8981 H        1085.9681   20.1037   59.5398 H      1496        0    0.0000
   8982 H        1085.5576   18.3921   59.5263 H      1496        0    0.0000
   8983 C        1087.7053   18.7826   59.4606 C.3    1497        0    0.0000
   8984 C        1088.5421   20.0278   59.7743 C.3    1497        0    0.0000
   8985 H        1087.6960   18.1079   60.3255 H      1497        0    0.0000
   8986 H        1088.1571   18.2250   58.6308 H      1497        0    0.0000
   8987 H        1088.3412   20.8123   59.0342 H      1497        0    0.0000
   8988 H        1088.2570   20.4362   60.7516 H      1497        0    0.0000
   8989 C        1090.0800   19.7234   59.7832 C.3    1498        0    0.0000
   8990 C        1090.8101   20.4535   60.9159 C.3    1498        0    0.0000
   8991 H        1090.2255   18.6402   59.8786 H      1498        0    0.0000
   8992 H        1090.5035   20.0140   58.8139 H      1498        0    0.0000
   8993 H        1090.7258   21.5388   60.7796 H      1498        0    0.0000
   8994 H        1090.3396   20.2195   61.8789 H      1498        0    0.0000
   8995 C        1092.3282   20.0696   60.9886 C.3    1499        0    0.0000
   8996 C        1093.0797   20.8726   62.0561 C.3    1499        0    0.0000
   8997 H        1092.4117   18.9959   61.1973 H      1499        0    0.0000
   8998 H        1092.7825   20.2355   60.0039 H      1499        0    0.0000
   8999 H        1093.1444   21.9264   61.7580 H      1499        0    0.0000
   9000 H        1092.5283   20.8466   63.0041 H      1499        0    0.0000
   9001 C        1094.5288   20.3265   62.2994 C.3    1500        0    0.0000
   9002 C        1095.3763   21.2844   63.1440 C.3    1500        0    0.0000
   9003 H        1094.4602   19.3495   62.7938 H      1500        0    0.0000
   9004 H        1095.0099   20.1551   61.3285 H      1500        0    0.0000
   9005 H        1095.4398   22.2632   62.6527 H      1500        0    0.0000
   9006 H        1094.8986   21.4508   64.1174 H      1500        0    0.0000
   9007 C        1096.8282   20.7423   63.3800 C.3    1501        0    0.0000
   9008 C        1097.6637   21.6822   64.2561 C.3    1501        0    0.0000
   9009 H        1096.7642   19.7513   63.8461 H      1501        0    0.0000
   9010 H        1097.3157   20.6021   62.4073 H      1501        0    0.0000
   9011 H        1097.5945   22.7097   63.8780 H      1501        0    0.0000
   9012 H        1097.2667   21.6952   65.2787 H      1501        0    0.0000
   9013 C        1099.1735   21.2628   64.3054 C.3    1502        0    0.0000
   9014 C        1099.9731   22.0894   65.3184 C.3    1502        0    0.0000
   9015 H        1099.2362   20.1967   64.5567 H      1502        0    0.0000
   9016 H        1099.6049   21.3762   63.3032 H      1502        0    0.0000
   9017 H        1100.0205   23.1368   64.9955 H      1502        0    0.0000
   9018 H        1099.4678   22.0825   66.2921 H      1502        0    0.0000
   9019 C        1101.4337   21.5512   65.5034 C.3    1503        0    0.0000
   9020 C        1102.2183   22.3488   66.5509 C.3    1503        0    0.0000
   9021 H        1101.3871   20.4941   65.7930 H      1503        0    0.0000
   9022 H        1101.9502   21.5904   64.5363 H      1503        0    0.0000
   9023 H        1102.1155   23.4241   66.3595 H      1503        0    0.0000
   9024 H        1101.8049   22.1658   67.5504 H      1503        0    0.0000
   9025 C        1103.7421   21.9804   66.5593 C.3    1504        0    0.0000
   9026 C        1104.5548   22.8922   67.4850 C.3    1504        0    0.0000
   9027 H        1103.8513   20.9343   66.8711 H      1504        0    0.0000
   9028 H        1104.1272   22.0455   65.5342 H      1504        0    0.0000
   9029 H        1104.9954   23.7160   66.9098 H      1504        0    0.0000
   9030 H        1103.8977   23.3482   68.2358 H      1504        0    0.0000
   9031 C        1105.7034   22.1197   68.2211 C.3    1505        0    0.0000
   9032 C        1106.5890   23.0522   69.0548 C.3    1505        0    0.0000
   9033 H        1105.2570   21.3508   68.8637 H      1505        0    0.0000
   9034 H        1106.3101   21.5927   67.4744 H      1505        0    0.0000
   9035 H        1106.4841   24.0855   68.7019 H      1505        0    0.0000
   9036 H        1106.2638   23.0425   70.1025 H      1505        0    0.0000
   9037 C        1108.1023   22.6477   68.9918 C.3    1506        0    0.0000
   9038 C        1109.0143   23.7117   69.6125 C.3    1506        0    0.0000
   9039 H        1108.2344   21.6901   69.5107 H      1506        0    0.0000
   9040 H        1108.3799   22.4791   67.9440 H      1506        0    0.0000
   9041 H        1109.8348   23.9513   68.9249 H      1506        0    0.0000
   9042 H        1108.4540   24.6416   69.7705 H      1506        0    0.0000
   9043 C        1109.6212   23.2487   70.9815 C.3    1507        0    0.0000
   9044 C        1110.5299   24.3144   71.6041 C.3    1507        0    0.0000
   9045 H        1108.8007   23.0062   71.6681 H      1507        0    0.0000
   9046 H        1110.1842   22.3205   70.8230 H      1507        0    0.0000
   9047 H        1110.4164   25.2651   71.0686 H      1507        0    0.0000
   9048 H        1110.2333   24.5009   72.6437 H      1507        0    0.0000
   9049 C        1112.0405   23.8966   71.5771 C.3    1508        0    0.0000
   9050 C        1112.9119   24.8118   72.4446 C.3    1508        0    0.0000
   9051 H        1112.1266   22.8586   71.9213 H      1508        0    0.0000
   9052 H        1112.3939   23.9146   70.5387 H      1508        0    0.0000
   9053 H        1113.1166   25.7499   71.9139 H      1508        0    0.0000
   9054 H        1112.3763   25.0803   73.3637 H      1508        0    0.0000
   9055 C        1114.2754   24.1421   72.8314 C.3    1509        0    0.0000
   9056 C        1115.3989   25.1700   73.0049 C.3    1509        0    0.0000
   9057 H        1114.1393   23.5733   73.7595 H      1509        0    0.0000
   9058 H        1114.5460   23.4167   72.0541 H      1509        0    0.0000
   9059 H        1115.2756   25.9874   72.2838 H      1509        0    0.0000
   9060 H        1115.3455   25.6205   74.0038 H      1509        0    0.0000
   9061 C        1116.8195   24.5359   72.8118 C.3    1510        0    0.0000
   9062 C        1117.8115   24.9953   73.8860 C.3    1510        0    0.0000
   9063 H        1116.7244   23.4432   72.8302 H      1510        0    0.0000
   9064 H        1117.1934   24.8029   71.8156 H      1510        0    0.0000
   9065 H        1117.2719   25.2955   74.7927 H      1510        0    0.0000
   9066 H        1118.4688   24.1645   74.1711 H      1510        0    0.0000
   9067 C        1118.6959   26.1964   73.4034 C.3    1511        0    0.0000
   9068 C        1119.6853   26.6582   74.4790 C.3    1511        0    0.0000
   9069 H        1119.2377   25.8953   72.4983 H      1511        0    0.0000
   9070 H        1118.0386   27.0262   73.1158 H      1511        0    0.0000
   9071 H        1120.1854   27.5807   74.1588 H      1511        0    0.0000
   9072 H        1119.1490   26.8962   75.4061 H      1511        0    0.0000
   9073 C        1120.7745   25.5743   74.7891 C.3    1512        0    0.0000
   9074 C        1121.7319   26.0148   75.9020 C.3    1512        0    0.0000
   9075 H        1120.2734   24.6403   75.0720 H      1512        0    0.0000
   9076 H        1121.3365   25.3647   73.8706 H      1512        0    0.0000
   9077 H        1122.3164   26.8830   75.5735 H      1512        0    0.0000
   9078 H        1121.1624   26.3339   76.7837 H      1512        0    0.0000
   9079 C        1122.7184   24.8718   76.3240 C.3    1513        0    0.0000
   9080 C        1123.7349   25.3393   77.3716 C.3    1513        0    0.0000
   9081 H        1122.1359   24.0286   76.7150 H      1513        0    0.0000
   9082 H        1123.2400   24.5071   75.4304 H      1513        0    0.0000
   9083 H        1123.3784   26.2550   77.8592 H      1513        0    0.0000
   9084 H        1123.8381   24.5826   78.1592 H      1513        0    0.0000
   9085 C        1125.1465   25.6151   76.7479 C.3    1514        0    0.0000
   9086 C        1126.0781   26.3474   77.7201 C.3    1514        0    0.0000
   9087 H        1125.5930   24.6592   76.4471 H      1514        0    0.0000
   9088 H        1125.0193   26.2056   75.8322 H      1514        0    0.0000
   9089 H        1125.7986   27.4064   77.7832 H      1514        0    0.0000
   9090 H        1125.9695   25.9323   78.7299 H      1514        0    0.0000
   9091 C        1127.5824   26.2465   77.2914 C.3    1515        0    0.0000
   9092 C        1128.4928   27.1262   78.1554 C.3    1515        0    0.0000
   9093 H        1127.8994   25.1983   77.3573 H      1515        0    0.0000
   9094 H        1127.6698   26.5364   76.2370 H      1515        0    0.0000
   9095 H        1129.2303   27.6378   77.5248 H      1515        0    0.0000
   9096 H        1127.9025   27.9088   78.6479 H      1515        0    0.0000
   9097 C        1129.2511   26.3004   79.2510 C.3    1516        0    0.0000
   9098 C        1130.1996   27.1715   80.0821 C.3    1516        0    0.0000
   9099 H        1128.5132   25.8185   79.9045 H      1516        0    0.0000
   9100 H        1129.8121   25.4947   78.7615 H      1516        0    0.0000
   9101 H        1129.9797   28.2330   79.9141 H      1516        0    0.0000
   9102 H        1130.0437   26.9828   81.1515 H      1516        0    0.0000
   9103 C        1131.7056   26.9064   79.7368 C.3    1517        0    0.0000
   9104 C        1132.6493   27.3921   80.8426 C.3    1517        0    0.0000
   9105 H        1131.8457   25.8315   79.5680 H      1517        0    0.0000
   9106 H        1131.9451   27.4077   78.7908 H      1517        0    0.0000
   9107 H        1132.8104   28.4733   80.7516 H      1517        0    0.0000
   9108 H        1132.1945   27.2230   81.8265 H      1517        0    0.0000
   9109 C        1134.0393   26.6686   80.7976 C.3    1518        0    0.0000
   9110 C        1135.1584   27.5225   81.4039 C.3    1518        0    0.0000
   9111 H        1133.9595   25.7159   81.3355 H      1518        0    0.0000
   9112 H        1134.2765   26.4228   79.7551 H      1518        0    0.0000
   9113 H        1136.0599   27.4575   80.7821 H      1518        0    0.0000
   9114 H        1134.8606   28.5783   81.4176 H      1518        0    0.0000
   9115 C        1135.5187   27.0800   82.8641 C.3    1519        0    0.0000
   9116 C        1136.5967   27.9707   83.4915 C.3    1519        0    0.0000
   9117 H        1134.6080   27.1040   83.4755 H      1519        0    0.0000
   9118 H        1135.8573   26.0368   82.8440 H      1519        0    0.0000
   9119 H        1136.5978   28.9562   83.0097 H      1519        0    0.0000
   9120 H        1136.3750   28.1389   84.5527 H      1519        0    0.0000
   9121 C        1138.0293   27.3462   83.3676 C.3    1520        0    0.0000
   9122 C        1139.1334   28.4067   83.4410 C.3    1520        0    0.0000
   9123 H        1138.1635   26.6074   84.1674 H      1520        0    0.0000
   9124 H        1138.0957   26.7991   82.4190 H      1520        0    0.0000
   9125 H        1139.0630   29.0833   82.5804 H      1520        0    0.0000
   9126 H        1139.0029   29.0240   84.3386 H      1520        0    0.0000
   9127 C        1140.5663   27.7715   83.4685 C.3    1521        0    0.0000
   9128 C        1141.5554   28.6050   84.2908 C.3    1521        0    0.0000
   9129 H        1140.4957   26.7571   83.8804 H      1521        0    0.0000
   9130 H        1140.9272   27.6685   82.4377 H      1521        0    0.0000
   9131 H        1141.7662   29.5519   83.7787 H      1521        0    0.0000
   9132 H        1141.1139   28.8631   85.2613 H      1521        0    0.0000
   9133 C        1142.9080   27.8509   84.5355 C.3    1522        0    0.0000
   9134 C        1143.9520   28.7385   85.2220 C.3    1522        0    0.0000
   9135 H        1142.7112   26.9607   85.1458 H      1522        0    0.0000
   9136 H        1143.2927   27.4937   83.5722 H      1522        0    0.0000
   9137 H        1144.0972   29.6617   84.6476 H      1522        0    0.0000
   9138 H        1143.5958   29.0382   86.2155 H      1522        0    0.0000
   9139 C        1145.3353   28.0173   85.3773 C.3    1523        0    0.0000
   9140 C        1146.2870   28.7796   86.3059 C.3    1523        0    0.0000
   9141 H        1145.1647   27.0045   85.7628 H      1523        0    0.0000
   9142 H        1145.7885   27.9044   84.3846 H      1523        0    0.0000
   9143 H        1146.8137   29.5616   85.7448 H      1523        0    0.0000
   9144 H        1145.7170   29.2872   87.0940 H      1523        0    0.0000
   9145 C        1147.3459   27.8374   86.9749 C.3    1524        0    0.0000
   9146 C        1148.6782   28.5504   87.2311 C.3    1524        0    0.0000
   9147 H        1146.9351   27.4574   87.9184 H      1524        0    0.0000
   9148 H        1147.5039   26.9665   86.3267 H      1524        0    0.0000
   9149 H        1149.5037   27.8288   87.1972 H      1524        0    0.0000
   9150 H        1148.8696   29.2856   86.4397 H      1524        0    0.0000
   9151 C        1148.7034   29.2823   88.6172 C.3    1525        0    0.0000
   9152 C        1150.0341   29.9993   88.8716 C.3    1525        0    0.0000
   9153 H        1147.8759   30.0016   88.6525 H      1525        0    0.0000
   9154 H        1148.5151   28.5466   89.4091 H      1525        0    0.0000
   9155 H        1150.1097   30.8889   88.2342 H      1525        0    0.0000
   9156 H        1150.0793   30.3509   89.9099 H      1525        0    0.0000
   9157 C        1151.2694   29.0741   88.5971 C.3    1526        0    0.0000
   9158 C        1152.5968   29.7623   88.9338 C.3    1526        0    0.0000
   9159 H        1151.1615   28.1556   89.1872 H      1526        0    0.0000
   9160 H        1151.2587   28.7736   87.5420 H      1526        0    0.0000
   9161 H        1152.7678   30.6041   88.2514 H      1526        0    0.0000
   9162 H        1152.5569   30.1814   89.9470 H      1526        0    0.0000
   9163 C        1153.8154   28.7807   88.8407 C.3    1527        0    0.0000
   9164 C        1155.1244   29.4347   89.2967 C.3    1527        0    0.0000
   9165 H        1153.6040   27.8954   89.4531 H      1527        0    0.0000
   9166 H        1153.9102   28.4320   87.8048 H      1527        0    0.0000
   9167 H        1155.3937   30.2520   88.6161 H      1527        0    0.0000
   9168 H        1154.9951   29.8819   90.2902 H      1527        0    0.0000
   9169 C        1156.3113   28.4123   89.3532 C.3    1528        0    0.0000
   9170 C        1157.5258   28.9728   90.1016 C.3    1528        0    0.0000
   9171 H        1155.9625   27.4921   89.8381 H      1528        0    0.0000
   9172 H        1156.5934   28.1410   88.3284 H      1528        0    0.0000
   9173 H        1157.2035   29.7278   90.8294 H      1528        0    0.0000
   9174 H        1158.0173   28.1750   90.6719 H      1528        0    0.0000
   9175 C        1158.5739   29.6204   89.1322 C.3    1529        0    0.0000
   9176 C        1159.7286   30.2878   89.8872 C.3    1529        0    0.0000
   9177 H        1158.9620   28.8439   88.4614 H      1529        0    0.0000
   9178 H        1158.0626   30.3565   88.4996 H      1529        0    0.0000
   9179 H        1160.3723   30.8323   89.1851 H      1529        0    0.0000
   9180 H        1159.3368   31.0290   90.5948 H      1529        0    0.0000
   9181 C        1160.6023   29.2508   90.6737 C.3    1530        0    0.0000
   9182 C        1161.8855   29.8766   91.2311 C.3    1530        0    0.0000
   9183 H        1160.0027   28.8309   91.4908 H      1530        0    0.0000
   9184 H        1160.8501   28.4175   90.0044 H      1530        0    0.0000
   9185 H        1162.4276   30.3980   90.4325 H      1530        0    0.0000
   9186 H        1161.6379   30.6309   91.9883 H      1530        0    0.0000
   9187 C        1162.8365   28.8089   91.8737 C.3    1531        0    0.0000
   9188 C        1164.1975   29.3997   92.2583 C.3    1531        0    0.0000
   9189 H        1162.3462   28.3859   92.7591 H      1531        0    0.0000
   9190 H        1162.9719   27.9834   91.1639 H      1531        0    0.0000
   9191 H        1165.0032   28.7264   91.9405 H      1531        0    0.0000
   9192 H        1164.3563   30.3505   91.7343 H      1531        0    0.0000
   9193 C        1164.3236   29.6459   93.8013 C.3    1532        0    0.0000
   9194 C        1165.6553   30.3049   94.1776 C.3    1532        0    0.0000
   9195 H        1163.4868   30.2753   94.1286 H      1532        0    0.0000
   9196 H        1164.2184   28.6862   94.3223 H      1532        0    0.0000
   9197 H        1165.4753   31.2991   94.6050 H      1532        0    0.0000
   9198 H        1166.1608   29.7156   94.9526 H      1532        0    0.0000
   9199 C        1166.6151   30.4503   92.9467 C.3    1533        0    0.0000
   9200 C        1167.9830   31.0177   93.3407 C.3    1533        0    0.0000
   9201 H        1166.7373   29.4671   92.4756 H      1533        0    0.0000
   9202 H        1166.1388   31.0995   92.2016 H      1533        0    0.0000
   9203 H        1168.2927   31.7862   92.6216 H      1533        0    0.0000
   9204 H        1167.9187   31.5097   94.3192 H      1533        0    0.0000
   9205 C        1169.0902   29.9097   93.4042 C.3    1534        0    0.0000
   9206 C        1170.4896   30.4983   93.6153 C.3    1534        0    0.0000
   9207 H        1168.8481   29.2141   94.2173 H      1534        0    0.0000
   9208 H        1169.0629   29.3287   92.4740 H      1534        0    0.0000
   9209 H        1171.0062   30.5948   92.6523 H      1534        0    0.0000
   9210 H        1170.4131   31.5092   94.0343 H      1534        0    0.0000
   9211 C        1171.3657   29.6192   94.5730 C.3    1535        0    0.0000
   9212 C        1172.7722   30.1966   94.7670 C.3    1535        0    0.0000
   9213 H        1170.8564   29.5360   95.5412 H      1535        0    0.0000
   9214 H        1171.4291   28.6041   94.1621 H      1535        0    0.0000
   9215 H        1173.5109   29.3860   94.7952 H      1535        0    0.0000
   9216 H        1173.0375   30.8352   93.9156 H      1535        0    0.0000
   9217 C        1172.8932   31.0361   96.0854 C.3    1536        0    0.0000
   9218 C        1174.3444   31.4135   96.4026 C.3    1536        0    0.0000
   9219 H        1172.2822   31.9418   95.9850 H      1536        0    0.0000
   9220 H        1172.4653   30.4576   96.9136 H      1536        0    0.0000
   9221 H        1174.7360   32.0853   95.6287 H      1536        0    0.0000
   9222 H        1174.3912   31.9636   97.3507 H      1536        0    0.0000
   9223 C        1175.2772   30.1575   96.5006 C.3    1537        0    0.0000
   9224 C        1176.7404   30.4952   96.1928 C.3    1537        0    0.0000
   9225 H        1175.1934   29.7324   97.5085 H      1537        0    0.0000
   9226 H        1174.9136   29.3917   95.8044 H      1537        0    0.0000
   9227 H        1176.9575   30.2980   95.1357 H      1537        0    0.0000
   9228 H        1176.9224   31.5644   96.3578 H      1537        0    0.0000
   9229 C        1177.7389   29.6706   97.0761 C.3    1538        0    0.0000
   9230 C        1179.2004   29.9197   96.6876 C.3    1538        0    0.0000
   9231 H        1177.5796   29.9336   98.1292 H      1538        0    0.0000
   9232 H        1177.5001   28.6043   96.9781 H      1538        0    0.0000
   9233 H        1179.7219   28.9640   96.5534 H      1538        0    0.0000
   9234 H        1179.2496   30.4435   95.7249 H      1538        0    0.0000
   9235 C        1179.9650   30.7661   97.7630 C.3    1539        0    0.0000
   9236 C        1181.4858   30.6899   97.5886 C.3    1539        0    0.0000
   9237 H        1179.6305   31.8088   97.6957 H      1539        0    0.0000
   9238 H        1179.6823   30.4084   98.7609 H      1539        0    0.0000
   9239 H        1181.9850   30.9068   98.5412 H      1539        0    0.0000
   9240 H        1181.7811   29.6727   97.3028 H      1539        0    0.0000
   9241 C        1182.0104   31.6922   96.5034 C.3    1540        0    0.0000
   9242 C        1183.5336   31.8554   96.5516 C.3    1540        0    0.0000
   9243 H        1181.7015   31.3347   95.5133 H      1540        0    0.0000
   9244 H        1181.5231   32.6634   96.6541 H      1540        0    0.0000
   9245 H        1183.8005   32.9171   96.4782 H      1540        0    0.0000
   9246 H        1183.9199   31.4992   97.5145 H      1540        0    0.0000
   9247 C        1184.2517   31.0731   95.3985 C.3    1541        0    0.0000
   9248 C        1185.6943   30.7016   95.7593 C.3    1541        0    0.0000
   9249 H        1183.6752   30.1673   95.1733 H      1541        0    0.0000
   9250 H        1184.2378   31.6893   94.4909 H      1541        0    0.0000
   9251 H        1186.1724   30.1872   94.9165 H      1541        0    0.0000
   9252 H        1186.2806   31.6095   95.9477 H      1541        0    0.0000
   9253 C        1185.7716   29.7789   97.0242 C.3    1542        0    0.0000
   9254 C        1187.1957   29.6747   97.5811 C.3    1542        0    0.0000
   9255 H        1185.0953   30.1745   97.7923 H      1542        0    0.0000
   9256 H        1185.3977   28.7823   96.7583 H      1542        0    0.0000
   9257 H        1187.4792   28.6210   97.6936 H      1542        0    0.0000
   9258 H        1187.9088   30.1195   96.8761 H      1542        0    0.0000
   9259 C        1187.3446   30.3888   98.9686 C.3    1543        0    0.0000
   9260 C        1188.8025   30.4481   99.4380 C.3    1543        0    0.0000
   9261 H        1186.9330   31.4027   98.8906 H      1543        0    0.0000
   9262 H        1186.7329   29.8564   99.7077 H      1543        0    0.0000
   9263 H        1188.8629   30.2141  100.5080 H      1543        0    0.0000
   9264 H        1189.3970   29.6884   98.9153 H      1543        0    0.0000
   9265 C        1189.4496   31.8543   99.1908 C.3    1544        0    0.0000
   9266 C        1190.9631   31.7659   98.9662 C.3    1544        0    0.0000
   9267 H        1188.9668   32.3179   98.3216 H      1544        0    0.0000
   9268 H        1189.2340   32.4991  100.0520 H      1544        0    0.0000
   9269 H        1191.1760   31.5904   97.9045 H      1544        0    0.0000
   9270 H        1191.4388   32.7187   99.2295 H      1544        0    0.0000
   9271 C        1191.6230   30.6214   99.8100 C.3    1545        0    0.0000
   9272 C        1193.0575   30.3217   99.3608 C.3    1545        0    0.0000
   9273 H        1191.6130   30.9113  100.8680 H      1545        0    0.0000
   9274 H        1191.0057   29.7186   99.7249 H      1545        0    0.0000
   9275 H        1193.2246   29.2377   99.3347 H      1545        0    0.0000
   9276 H        1193.2166   30.6898   98.3398 H      1545        0    0.0000
   9277 C        1194.1245   30.9748  100.3056 C.3    1546        0    0.0000
   9278 C        1195.5453   30.4855  100.0029 C.3    1546        0    0.0000
   9279 H        1194.0714   32.0653  100.1985 H      1546        0    0.0000
   9280 H        1193.8621   30.7472  101.3462 H      1546        0    0.0000
   9281 H        1195.5223   29.4343   99.6903 H      1546        0    0.0000
   9282 H        1195.9684   31.0542   99.1657 H      1546        0    0.0000
   9283 C        1196.4973   30.6240  101.2406 C.3    1547        0    0.0000
   9284 C        1197.9178   30.1339  100.9385 C.3    1547        0    0.0000
   9285 H        1196.5206   31.6753  101.5531 H      1547        0    0.0000
   9286 H        1196.0735   30.0558  102.0780 H      1547        0    0.0000
   9287 H        1198.3459   29.6513  101.8259 H      1547        0    0.0000
   9288 H        1197.8933   29.3739  100.1476 H      1547        0    0.0000
   9289 C        1198.8657   31.2993  100.4905 C.3    1548        0    0.0000
   9290 C        1200.2545   30.7944  100.0836 C.3    1548        0    0.0000
   9291 H        1198.3990   31.8325   99.6530 H      1548        0    0.0000
   9292 H        1198.9535   32.0197  101.3131 H      1548        0    0.0000
   9293 H        1200.1808   30.1798   99.1778 H      1548        0    0.0000
   9294 H        1200.9056   31.6422   99.8368 H      1548        0    0.0000
   9295 C        1200.9338   29.9480  101.2147 C.3    1549        0    0.0000
   9296 C        1202.3662   29.5392  100.8538 C.3    1549        0    0.0000
   9297 H        1200.9321   30.5325  102.1431 H      1549        0    0.0000
   9298 H        1200.3241   29.0556  101.4033 H      1549        0    0.0000
   9299 H        1202.6819   28.6897  101.4721 H      1549        0    0.0000
   9300 H        1202.4098   29.2029   99.8106 H      1549        0    0.0000
   9301 C        1203.3864   30.7133  101.0493 C.3    1550        0    0.0000
   9302 C        1204.8333   30.2728  100.8011 C.3    1550        0    0.0000
   9303 H        1203.1198   31.5305  100.3676 H      1550        0    0.0000
   9304 H        1203.2822   31.1063  102.0681 H      1550        0    0.0000
   9305 H        1205.1089   29.4746  101.5015 H      1550        0    0.0000
   9306 H        1204.9314   29.8542   99.7918 H      1550        0    0.0000
   9307 C        1205.8497   31.4560  100.9583 C.3    1551        0    0.0000
   9308 C        1207.3044   30.9945  100.8176 C.3    1551        0    0.0000
   9309 H        1205.6228   32.2198  100.2041 H      1551        0    0.0000
   9310 H        1205.6971   31.9256  101.9379 H      1551        0    0.0000
   9311 H        1207.8302   31.6245  100.0895 H      1551        0    0.0000
   9312 H        1207.8303   31.1115  101.7733 H      1551        0    0.0000
   9313 C        1207.4117   29.4985  100.3618 C.3    1552        0    0.0000
   9314 C        1208.8335   28.9459  100.5126 C.3    1552        0    0.0000
   9315 H        1206.7100   28.8974  100.9531 H      1552        0    0.0000
   9316 H        1207.0879   29.4232   99.3163 H      1552        0    0.0000
   9317 H        1209.5243   29.5042   99.8688 H      1552        0    0.0000
   9318 H        1209.1829   29.0831  101.5434 H      1552        0    0.0000
   9319 C        1208.9210   27.4238  100.1477 C.3    1553        0    0.0000
   9320 C        1210.3651   26.9101  100.1415 C.3    1553        0    0.0000
   9321 H        1208.3219   26.8526  100.8674 H      1553        0    0.0000
   9322 H        1208.4625   27.2693   99.1631 H      1553        0    0.0000
   9323 H        1210.3748   25.8142  100.1922 H      1553        0    0.0000
   9324 H        1210.8585   27.1863   99.2014 H      1553        0    0.0000
   9325 C        1211.2031   27.4787  101.3382 C.3    1554        0    0.0000
   9326 C        1212.5658   28.0176  100.8888 C.3    1554        0    0.0000
   9327 H        1210.6268   28.2741  101.8270 H      1554        0    0.0000
   9328 H        1211.3395   26.6851  102.0830 H      1554        0    0.0000
   9329 H        1213.1543   27.2148  100.4279 H      1554        0    0.0000
   9330 H        1212.4304   28.7895  100.1211 H      1554        0    0.0000
   9331 C        1213.3855   28.6264  102.0782 C.3    1555        0    0.0000
   9332 C        1214.8492   28.8838  101.7034 C.3    1555        0    0.0000
   9333 H        1212.9081   29.5622  102.3942 H      1555        0    0.0000
   9334 H        1213.3311   27.9407  102.9329 H      1555        0    0.0000
   9335 H        1214.9542   28.9379  100.6127 H      1555        0    0.0000
   9336 H        1215.1740   29.8539  102.0996 H      1555        0    0.0000
   9337 C        1215.8071   27.7691  102.2485 C.3    1556        0    0.0000
   9338 C        1217.2665   28.0099  101.8468 C.3    1556        0    0.0000
   9339 H        1215.7191   27.7305  103.3413 H      1556        0    0.0000
   9340 H        1215.4685   26.7963  101.8707 H      1556        0    0.0000
   9341 H        1217.3823   27.8935  100.7622 H      1556        0    0.0000
   9342 H        1217.5573   29.0403  102.0860 H      1556        0    0.0000
   9343 C        1218.2512   27.0265  102.5684 C.3    1557        0    0.0000
   9344 C        1219.7186   27.3424  102.2585 C.3    1557        0    0.0000
   9345 H        1218.0752   27.0802  103.6498 H      1557        0    0.0000
   9346 H        1218.0144   26.0004  102.2611 H      1557        0    0.0000
   9347 H        1219.8285   27.6210  101.2032 H      1557        0    0.0000
   9348 H        1220.0500   28.2059  102.8485 H      1557        0    0.0000
   9349 C        1220.6646   26.1298  102.5622 C.3    1558        0    0.0000
   9350 C        1222.1321   26.4465  102.2537 C.3    1558        0    0.0000
   9351 H        1220.5537   25.8504  103.6172 H      1558        0    0.0000
   9352 H        1220.3336   25.2668  101.9713 H      1558        0    0.0000
   9353 H        1222.2595   26.6300  101.1796 H      1558        0    0.0000
   9354 H        1222.4346   27.3665  102.7687 H      1558        0    0.0000
   9355 C        1223.0936   25.2862  102.6856 C.3    1559        0    0.0000
   9356 C        1224.5701   25.6724  102.5446 C.3    1559        0    0.0000
   9357 H        1222.8738   25.0131  103.7251 H      1559        0    0.0000
   9358 H        1222.8763   24.4011  102.0748 H      1559        0    0.0000
   9359 H        1224.8630   26.3433  103.3617 H      1559        0    0.0000
   9360 H        1225.2020   24.7796  102.6281 H      1559        0    0.0000
   9361 C        1224.8717   26.3788  101.1781 C.3    1560        0    0.0000
   9362 C        1226.3380   26.8085  101.0576 C.3    1560        0    0.0000
   9363 H        1224.6119   25.6942  100.3612 H      1560        0    0.0000
   9364 H        1224.2146   27.2515  101.0787 H      1560        0    0.0000
   9365 H        1226.5895   27.5162  101.8573 H      1560        0    0.0000
   9366 H        1226.9963   25.9404  101.1864 H      1560        0    0.0000
   9367 C        1226.6492   27.4777   99.6745 C.3    1561        0    0.0000
   9368 C        1228.1516   27.6863   99.4550 C.3    1561        0    0.0000
   9369 H        1226.2363   26.8484   98.8763 H      1561        0    0.0000
   9370 H        1226.1243   28.4394   99.6209 H      1561        0    0.0000
   9371 H        1228.5297   26.9603   98.7244 H      1561        0    0.0000
   9372 H        1228.3354   28.6822   99.0329 H      1561        0    0.0000
   9373 C        1228.9720   27.5410  100.7828 C.3    1562        0    0.0000
   9374 C        1230.3966   27.0337  100.5329 C.3    1562        0    0.0000
   9375 H        1229.0024   28.5144  101.2879 H      1562        0    0.0000
   9376 H        1228.4406   26.8546  101.4535 H      1562        0    0.0000
   9377 H        1230.3674   26.0934   99.9686 H      1562        0    0.0000
   9378 H        1230.9496   27.7537   99.9170 H      1562        0    0.0000
   9379 C        1231.1860   26.7984  101.8666 C.3    1563        0    0.0000
   9380 C        1232.1649   25.6236  101.7627 C.3    1563        0    0.0000
   9381 H        1231.7273   27.7173  102.1240 H      1563        0    0.0000
   9382 H        1230.4674   26.6188  102.6759 H      1563        0    0.0000
   9383 H        1231.7081   24.7157  102.1760 H      1563        0    0.0000
   9384 H        1232.3884   25.4122  100.7097 H      1563        0    0.0000
   9385 C        1233.5096   25.9019  102.5188 C.3    1564        0    0.0000
   9386 C        1234.7019   25.1974  101.8622 C.3    1564        0    0.0000
   9387 H        1233.6815   26.9850  102.5471 H      1564        0    0.0000
   9388 H        1233.4047   25.5723  103.5599 H      1564        0    0.0000
   9389 H        1234.6641   24.1210  102.0706 H      1564        0    0.0000
   9390 H        1234.6511   25.3092  100.7720 H      1564        0    0.0000
   9391 C        1236.0756   25.7615  102.3646 C.3    1565        0    0.0000
   9392 C        1237.2610   24.9169  101.8841 C.3    1565        0    0.0000
   9393 H        1236.1832   26.7952  102.0132 H      1565        0    0.0000
   9394 H        1236.0618   25.8012  103.4608 H      1565        0    0.0000
   9395 H        1237.1915   23.9025  102.2960 H      1565        0    0.0000
   9396 H        1237.2329   24.8161  100.7921 H      1565        0    0.0000
   9397 C        1238.6394   25.5375  102.2990 C.3    1566        0    0.0000
   9398 C        1239.8253   24.7047  101.7997 C.3    1566        0    0.0000
   9399 H        1238.7020   26.5578  101.9007 H      1566        0    0.0000
   9400 H        1238.6740   25.6234  103.3922 H      1566        0    0.0000
   9401 H        1239.9244   23.7929  102.4017 H      1566        0    0.0000
   9402 H        1239.6495   24.3821  100.7659 H      1566        0    0.0000
   9403 C        1241.1755   25.4986  101.8587 C.3    1567        0    0.0000
   9404 C        1242.3895   24.6009  101.5954 C.3    1567        0    0.0000
   9405 H        1241.1411   26.3103  101.1214 H      1567        0    0.0000
   9406 H        1241.2646   25.9721  102.8444 H      1567        0    0.0000
   9407 H        1242.0864   23.7180  101.0191 H      1567        0    0.0000
   9408 H        1243.1283   25.1364  100.9863 H      1567        0    0.0000
   9409 C        1243.0768   24.1267  102.9221 C.3    1568        0    0.0000
   9410 C        1244.3423   23.3031  102.6585 C.3    1568        0    0.0000
   9411 H        1243.3209   25.0077  103.5284 H      1568        0    0.0000
   9412 H        1242.3571   23.5352  103.5014 H      1568        0    0.0000
   9413 H        1244.7887   22.9850  103.6089 H      1568        0    0.0000
   9414 H        1244.0881   22.3887  102.1083 H      1568        0    0.0000
   9415 C        1245.4130   24.1043  101.8405 C.3    1569        0    0.0000
   9416 C        1246.5261   23.2005  101.2991 C.3    1569        0    0.0000
   9417 H        1244.9116   24.6207  101.0126 H      1569        0    0.0000
   9418 H        1245.8403   24.8825  102.4847 H      1569        0    0.0000
   9419 H        1246.1036   22.2483  100.9549 H      1569        0    0.0000
   9420 H        1246.9999   23.6683  100.4272 H      1569        0    0.0000
   9421 C        1247.6276   22.9051  102.3748 C.3    1570        0    0.0000
   9422 C        1248.6403   21.8586  101.8970 C.3    1570        0    0.0000
   9423 H        1248.1425   23.8422  102.6203 H      1570        0    0.0000
   9424 H        1247.1393   22.5631  103.2958 H      1570        0    0.0000
   9425 H        1248.9249   21.2031  102.7293 H      1570        0    0.0000
   9426 H        1248.1854   21.2169  101.1321 H      1570        0    0.0000
   9427 C        1249.9352   22.5127  101.3031 C.3    1571        0    0.0000
   9428 C        1251.1022   21.5224  101.2235 C.3    1571        0    0.0000
   9429 H        1249.7067   22.9057  100.3046 H      1571        0    0.0000
   9430 H        1250.2135   23.3730  101.9242 H      1571        0    0.0000
   9431 H        1250.9305   20.6830  101.9088 H      1571        0    0.0000
   9432 H        1251.1664   21.0971  100.2142 H      1571        0    0.0000
   9433 C        1252.4746   22.1918  101.5780 C.3    1572        0    0.0000
   9434 C        1253.6132   21.1696  101.6687 C.3    1572        0    0.0000
   9435 H        1252.7068   22.9469  100.8169 H      1572        0    0.0000
   9436 H        1252.3718   22.7258  102.5308 H      1572        0    0.0000
   9437 H        1254.1537   21.2918  102.6155 H      1572        0    0.0000
   9438 H        1253.2054   20.1513  101.6678 H      1572        0    0.0000
   9439 C        1254.6309   21.3075  100.4844 C.3    1573        0    0.0000
   9440 C        1255.8156   20.3449  100.6216 C.3    1573        0    0.0000
   9441 H        1254.1028   21.1220   99.5409 H      1573        0    0.0000
   9442 H        1254.9904   22.3433  100.4459 H      1573        0    0.0000
   9443 H        1255.9159   20.0181  101.6641 H      1573        0    0.0000
   9444 H        1255.6381   19.4421  100.0242 H      1573        0    0.0000
   9445 C        1257.1663   20.9960  100.1640 C.3    1574        0    0.0000
   9446 C        1258.3866   20.2330  100.6909 C.3    1574        0    0.0000
   9447 H        1257.1887   21.0305   99.0677 H      1574        0    0.0000
   9448 H        1257.1935   22.0359  100.5125 H      1574        0    0.0000
   9449 H        1259.1660   20.9392  101.0026 H      1574        0    0.0000
   9450 H        1258.1124   19.6532  101.5808 H      1574        0    0.0000
   9451 C        1258.9867   19.2592   99.6187 C.3    1575        0    0.0000
   9452 C        1260.2411   18.5392  100.1256 C.3    1575        0    0.0000
   9453 H        1258.2200   18.5265   99.3381 H      1575        0    0.0000
   9454 H        1259.2217   19.8319   98.7131 H      1575        0    0.0000
   9455 H        1259.9783   17.8560  100.9427 H      1575        0    0.0000
   9456 H        1260.6704   17.9231   99.3257 H      1575        0    0.0000
   9457 C        1261.3352   19.5394  100.6354 C.3    1576        0    0.0000
   9458 C        1262.7520   18.9716  100.4954 C.3    1576        0    0.0000
   9459 H        1261.2480   20.4763  100.0714 H      1576        0    0.0000
   9460 H        1261.1298   19.7834  101.6851 H      1576        0    0.0000
   9461 H        1262.9175   18.6229   99.4686 H      1576        0    0.0000
   9462 H        1263.4928   19.7585  100.6843 H      1576        0    0.0000
   9463 C        1263.0155   17.7821  101.4817 C.3    1577        0    0.0000
   9464 C        1264.3820   17.1276  101.2504 C.3    1577        0    0.0000
   9465 H        1262.9462   18.1544  102.5113 H      1577        0    0.0000
   9466 H        1262.2173   17.0391  101.3611 H      1577        0    0.0000
   9467 H        1264.5300   16.3050  101.9610 H      1577        0    0.0000
   9468 H        1264.4232   16.6878  100.2462 H      1577        0    0.0000
   9469 C        1265.5627   18.1472  101.4046 C.3    1578        0    0.0000
   9470 C        1266.8226   17.6942  100.6588 C.3    1578        0    0.0000
   9471 H        1265.2360   19.1258  101.0313 H      1578        0    0.0000
   9472 H        1265.7827   18.2746  102.4718 H      1578        0    0.0000
   9473 H        1266.7241   17.9109   99.5878 H      1578        0    0.0000
   9474 H        1267.6938   18.2578  101.0154 H      1578        0    0.0000
   9475 C        1267.1025   16.1626  100.8407 C.3    1579        0    0.0000
   9476 C        1268.2523   15.6727   99.9534 C.3    1579        0    0.0000
   9477 H        1267.3323   15.9679  101.8957 H      1579        0    0.0000
   9478 H        1266.1859   15.6057  100.6100 H      1579        0    0.0000
   9479 H        1268.0182   14.6804   99.5483 H      1579        0    0.0000
   9480 H        1268.3757   16.3428   99.0936 H      1579        0    0.0000
   9481 C        1269.6110   15.5933  100.7314 C.3    1580        0    0.0000
   9482 C        1270.8082   15.4097   99.7921 C.3    1580        0    0.0000
   9483 H        1269.7339   16.5092  101.3227 H      1580        0    0.0000
   9484 H        1269.5616   14.7617  101.4449 H      1580        0    0.0000
   9485 H        1270.5127   14.8171   98.9175 H      1580        0    0.0000
   9486 H        1271.1427   16.3837   99.4142 H      1580        0    0.0000
   9487 C        1272.0145   14.7006  100.4990 C.3    1581        0    0.0000
   9488 C        1273.3368   14.9271   99.7577 C.3    1581        0    0.0000
   9489 H        1272.0911   15.0744  101.5275 H      1581        0    0.0000
   9490 H        1271.8016   13.6267  100.5691 H      1581        0    0.0000
   9491 H        1273.1432   15.1325   98.6975 H      1581        0    0.0000
   9492 H        1273.8479   15.8098  100.1615 H      1581        0    0.0000
   9493 C        1274.2975   13.6931   99.8661 C.3    1582        0    0.0000
   9494 C        1275.5452   13.8496   98.9897 C.3    1582        0    0.0000
   9495 H        1274.5890   13.5631  100.9157 H      1582        0    0.0000
   9496 H        1273.7462   12.7895   99.5780 H      1582        0    0.0000
   9497 H        1275.7401   12.9184   98.4433 H      1582        0    0.0000
   9498 H        1275.3798   14.6288   98.2355 H      1582        0    0.0000
   9499 C        1276.8173   14.2192   99.8279 C.3    1583        0    0.0000
   9500 C        1278.1030   14.1406   98.9973 C.3    1583        0    0.0000
   9501 H        1276.6924   15.2311  100.2327 H      1583        0    0.0000
   9502 H        1276.8832   13.5416  100.6883 H      1583        0    0.0000
   9503 H        1277.8953   14.4150   97.9556 H      1583        0    0.0000
   9504 H        1278.8383   14.8629   99.3727 H      1583        0    0.0000
   9505 C        1278.7415   12.7092   99.0250 C.3    1584        0    0.0000
   9506 C        1279.9930   12.6141   98.1453 C.3    1584        0    0.0000
   9507 H        1278.9904   12.4530  100.0622 H      1584        0    0.0000
   9508 H        1277.9915   11.9810   98.6920 H      1584        0    0.0000
   9509 H        1279.9119   11.7555   97.4672 H      1584        0    0.0000
   9510 H        1280.0776   13.5073   97.5139 H      1584        0    0.0000
   9511 C        1281.3043   12.4673   98.9918 C.3    1585        0    0.0000
   9512 C        1282.5629   12.4629   98.1170 C.3    1585        0    0.0000
   9513 H        1281.3522   13.2904   99.7155 H      1585        0    0.0000
   9514 H        1281.2474   11.5391   99.5737 H      1585        0    0.0000
   9515 H        1282.3352   12.0353   97.1327 H      1585        0    0.0000
   9516 H        1282.9034   13.4910   97.9427 H      1585        0    0.0000
   9517 C        1283.7335   11.6455   98.7644 C.3    1586        0    0.0000
   9518 C        1284.9246   11.4840   97.8133 C.3    1586        0    0.0000
   9519 H        1284.0524   12.1522   99.6838 H      1586        0    0.0000
   9520 H        1283.3541   10.6604   99.0630 H      1586        0    0.0000
   9521 H        1284.6315   10.8850   96.9422 H      1586        0    0.0000
   9522 H        1285.2367   12.4639   97.4315 H      1586        0    0.0000
   9523 C        1286.1512   10.7984   98.5086 C.3    1587        0    0.0000
   9524 C        1287.3525   10.6644   97.5664 C.3    1587        0    0.0000
   9525 H        1286.4301   11.3852   99.3926 H      1587        0    0.0000
   9526 H        1285.8450    9.8092   98.8708 H      1587        0    0.0000
   9527 H        1287.0104   10.4228   96.5524 H      1587        0    0.0000
   9528 H        1287.8864   11.6205   97.4992 H      1587        0    0.0000
   9529 C        1288.3568    9.5569   98.0380 C.3    1588        0    0.0000
   9530 C        1289.6843    9.6130   97.2740 C.3    1588        0    0.0000
   9531 H        1288.5365    9.6773   99.1136 H      1588        0    0.0000
   9532 H        1287.8876    8.5742   97.9051 H      1588        0    0.0000
   9533 H        1289.6749    8.8888   96.4500 H      1588        0    0.0000
   9534 H        1289.8162   10.6035   96.8214 H      1588        0    0.0000
   9535 C        1290.9146    9.3117   98.1977 C.3    1589        0    0.0000
   9536 C        1292.2310    9.2639   97.4144 C.3    1589        0    0.0000
   9537 H        1290.9685   10.0817   98.9773 H      1589        0    0.0000
   9538 H        1290.7466    8.3562   98.7097 H      1589        0    0.0000
   9539 H        1292.0804    8.7512   96.4564 H      1589        0    0.0000
   9540 H        1292.5652   10.2817   97.1779 H      1589        0    0.0000
   9541 C        1293.3676    8.5305   98.2068 C.3    1590        0    0.0000
   9542 C        1294.5654    8.1829   97.3160 C.3    1590        0    0.0000
   9543 H        1293.6897    9.1709   99.0372 H      1590        0    0.0000
   9544 H        1292.9545    7.6181   98.6544 H      1590        0    0.0000
   9545 H        1295.4871    8.1752   97.9112 H      1590        0    0.0000
   9546 H        1294.4478    7.1725   96.9048 H      1590        0    0.0000
   9547 C        1294.7377    9.1941   96.1306 C.3    1591        0    0.0000
   9548 C        1295.9639    8.8748   95.2684 C.3    1591        0    0.0000
   9549 H        1293.8297    9.1752   95.5151 H      1591        0    0.0000
   9550 H        1294.8196   10.2084   96.5402 H      1591        0    0.0000
   9551 H        1295.9276    7.8303   94.9348 H      1591        0    0.0000
   9552 H        1295.9591    9.4949   94.3633 H      1591        0    0.0000
   9553 C        1297.3092    9.1133   96.0371 C.3    1592        0    0.0000
   9554 C        1298.4701    8.3109   95.4390 C.3    1592        0    0.0000
   9555 H        1297.5428   10.1849   96.0167 H      1592        0    0.0000
   9556 H        1297.1675    8.8417   97.0905 H      1592        0    0.0000
   9557 H        1298.0823    7.4743   94.8446 H      1592        0    0.0000
   9558 H        1299.0499    8.9419   94.7541 H      1592        0    0.0000
   9559 C        1299.4310    7.7451   96.5409 C.3    1593        0    0.0000
   9560 C        1300.4471    6.7498   95.9700 C.3    1593        0    0.0000
   9561 H        1299.9531    8.5832   97.0188 H      1593        0    0.0000
   9562 H        1298.8292    7.2626   97.3210 H      1593        0    0.0000
   9563 H        1299.9882    5.7581   95.8722 H      1593        0    0.0000
   9564 H        1300.7496    7.0577   94.9615 H      1593        0    0.0000
   9565 C        1301.7274    6.6278   96.8663 C.3    1594        0    0.0000
   9566 C        1302.9122    6.0202   96.1072 C.3    1594        0    0.0000
   9567 H        1301.9923    7.6240   97.2418 H      1594        0    0.0000
   9568 H        1301.4878    6.0140   97.7432 H      1594        0    0.0000
   9569 H        1303.3983    6.7877   95.4922 H      1594        0    0.0000
   9570 H        1303.6677    5.6593   96.8159 H      1594        0    0.0000
   9571 C        1302.4783    4.8313   95.1822 C.3    1595        0    0.0000
   9572 C        1303.6649    4.2155   94.4327 C.3    1595        0    0.0000
   9573 H        1301.9839    4.0680   95.7958 H      1595        0    0.0000
   9574 H        1301.7294    5.1944   94.4674 H      1595        0    0.0000
   9575 H        1304.5334    4.1419   95.0988 H      1595        0    0.0000
   9576 H        1303.4215    3.1932   94.1181 H      1595        0    0.0000
   9577 C        1304.0673    5.0507   93.1684 C.3    1596        0    0.0000
   9578 C        1305.5679    4.9646   92.8689 C.3    1596        0    0.0000
   9579 H        1303.4906    4.6896   92.3078 H      1596        0    0.0000
   9580 H        1303.7748    6.0961   93.3274 H      1596        0    0.0000
   9581 H        1305.8246    5.6334   92.0378 H      1596        0    0.0000
   9582 H        1306.1450    5.3056   93.7373 H      1596        0    0.0000
   9583 C        1306.0181    3.5083   92.5031 C.3    1597        0    0.0000
   9584 C        1307.4000    3.1674   93.0715 C.3    1597        0    0.0000
   9585 H        1305.2704    2.8011   92.8830 H      1597        0    0.0000
   9586 H        1306.0242    3.4038   91.4110 H      1597        0    0.0000
   9587 H        1307.5427    3.6668   94.0378 H      1597        0    0.0000
   9588 H        1307.4738    2.0892   93.2601 H      1597        0    0.0000
   9589 C        1308.5605    3.5923   92.1070 C.3    1598        0    0.0000
   9590 C        1309.9435    3.2848   92.6916 C.3    1598        0    0.0000
   9591 H        1308.4327    3.0724   91.1494 H      1598        0    0.0000
   9592 H        1308.4709    4.6654   91.8972 H      1598        0    0.0000
   9593 H        1310.7141    3.4103   91.9209 H      1598        0    0.0000
   9594 H        1310.1801    3.9962   93.4924 H      1598        0    0.0000
   9595 C        1310.0355    1.8290   93.2656 C.3    1599        0    0.0000
   9596 C        1311.4001    1.5403   93.9010 C.3    1599        0    0.0000
   9597 H        1309.2385    1.6900   94.0068 H      1599        0    0.0000
   9598 H        1309.8396    1.1161   92.4551 H      1599        0    0.0000
   9599 H        1311.9037    2.4813   94.1545 H      1599        0    0.0000
   9600 H        1311.2686    0.9902   94.8410 H      1599        0    0.0000
   9601 C        1312.3320    0.7076   92.9544 C.3    1600        0    0.0000
   9602 C        1313.7935    1.1636   93.0300 C.3    1600        0    0.0000
   9603 H        1312.2543   -0.3527   93.2249 H      1600        0    0.0000
   9604 H        1311.9625    0.7982   91.9254 H      1600        0    0.0000
   9605 H        1313.9277    1.8585   93.8680 H      1600        0    0.0000
   9606 H        1314.4459    0.3038   93.2260 H      1600        0    0.0000
   9607 C        1314.2655    1.8659   91.7104 C.3    1601        0    0.0000
   9608 C        1315.6965    1.4755   91.3245 C.3    1601        0    0.0000
   9609 H        1313.5725    1.6019   90.9020 H      1601        0    0.0000
   9610 H        1314.1951    2.9526   91.8435 H      1601        0    0.0000
   9611 H        1315.7014    0.4867   90.8490 H      1601        0    0.0000
   9612 H        1316.0929    2.1826   90.5853 H      1601        0    0.0000
   9613 C        1316.6586    1.4458   92.5618 C.3    1602        0    0.0000
   9614 C        1318.0160    0.8176   92.2274 C.3    1602        0    0.0000
   9615 H        1316.7981    2.4713   92.9259 H      1602        0    0.0000
   9616 H        1316.1749    0.8869   93.3725 H      1602        0    0.0000
   9617 H        1318.4263    1.2715   91.3167 H      1602        0    0.0000
   9618 H        1318.7334    1.0218   93.0319 H      1602        0    0.0000
   9619 C        1317.9180   -0.7330   92.0193 C.3    1603        0    0.0000
   9620 C        1319.2699   -1.3570   91.6561 C.3    1603        0    0.0000
   9621 H        1317.5278   -1.1891   92.9377 H      1603        0    0.0000
   9622 H        1317.1847   -0.9382   91.2295 H      1603        0    0.0000
   9623 H        1319.5253   -2.1459   92.3745 H      1603        0    0.0000
   9624 H        1319.2107   -1.8356   90.6707 H      1603        0    0.0000
   9625 C        1320.4264   -0.2989   91.6353 C.3    1604        0    0.0000
   9626 C        1321.7137   -0.8573   91.0189 C.3    1604        0    0.0000
   9627 H        1320.0907    0.5808   91.0723 H      1604        0    0.0000
   9628 H        1320.6161    0.0378   92.6620 H      1604        0    0.0000
   9629 H        1321.4850   -1.7332   90.3991 H      1604        0    0.0000
   9630 H        1322.1672   -0.1112   90.3547 H      1604        0    0.0000
   9631 C        1322.7637   -1.2692   92.1077 C.3    1605        0    0.0000
   9632 C        1323.9412   -2.0496   91.5132 C.3    1605        0    0.0000
   9633 H        1323.1272   -0.3636   92.6089 H      1605        0    0.0000
   9634 H        1322.2607   -1.8728   92.8734 H      1605        0    0.0000
   9635 H        1323.6782   -3.1101   91.4146 H      1605        0    0.0000
   9636 H        1324.1626   -1.6845   90.5026 H      1605        0    0.0000
   9637 C        1325.2361   -1.9294   92.3887 C.3    1606        0    0.0000
   9638 C        1326.4856   -2.4182   91.6478 C.3    1606        0    0.0000
   9639 H        1325.3632   -0.8822   92.6902 H      1606        0    0.0000
   9640 H        1325.0948   -2.5075   93.3102 H      1606        0    0.0000
   9641 H        1326.6979   -1.7619   90.7947 H      1606        0    0.0000
   9642 H        1327.3591   -2.3674   92.3094 H      1606        0    0.0000
   9643 C        1326.3306   -3.8888   91.1276 C.3    1607        0    0.0000
   9644 C        1327.5154   -4.3257   90.2591 C.3    1607        0    0.0000
   9645 H        1326.2283   -4.5598   91.9895 H      1607        0    0.0000
   9646 H        1325.3970   -3.9653   90.5564 H      1607        0    0.0000
   9647 H        1327.4996   -3.7879   89.3031 H      1607        0    0.0000
   9648 H        1328.4600   -4.0640   90.7522 H      1607        0    0.0000
   9649 C        1327.5054   -5.8668   89.9721 C.3    1608        0    0.0000
   9650 C        1328.4829   -6.2564   88.8577 C.3    1608        0    0.0000
   9651 H        1327.7574   -6.4004   90.8969 H      1608        0    0.0000
   9652 H        1326.4863   -6.1696   89.7013 H      1608        0    0.0000
   9653 H        1328.0825   -7.1018   88.2845 H      1608        0    0.0000
   9654 H        1328.6000   -5.4246   88.1520 H      1608        0    0.0000
   9655 C        1329.8947   -6.6478   89.4158 C.3    1609        0    0.0000
   9656 C        1331.0298   -5.9229   88.6843 C.3    1609        0    0.0000
   9657 H        1329.9283   -6.4145   90.4873 H      1609        0    0.0000
   9658 H        1330.0220   -7.7337   89.3256 H      1609        0    0.0000
   9659 H        1331.0162   -6.1822   87.6184 H      1609        0    0.0000
   9660 H        1330.8844   -4.8373   88.7463 H      1609        0    0.0000
   9661 C        1332.4385   -6.2786   89.2730 C.3    1610        0    0.0000
   9662 C        1333.5138   -5.2690   88.8566 C.3    1610        0    0.0000
   9663 H        1332.3645   -6.3196   90.3669 H      1610        0    0.0000
   9664 H        1332.7178   -7.2853   88.9381 H      1610        0    0.0000
   9665 H        1333.2448   -4.8065   87.8988 H      1610        0    0.0000
   9666 H        1333.5734   -4.4577   89.5925 H      1610        0    0.0000
   9667 C        1334.9283   -5.9306   88.7186 C.3    1611        0    0.0000
   9668 C        1335.6311   -5.5328   87.4159 C.3    1611        0    0.0000
   9669 H        1335.5408   -5.6388   89.5807 H      1611        0    0.0000
   9670 H        1334.8151   -7.0207   88.7672 H      1611        0    0.0000
   9671 H        1334.9642   -5.7028   86.5617 H      1611        0    0.0000
   9672 H        1335.8633   -4.4607   87.4260 H      1611        0    0.0000
   9673 C        1336.9585   -6.3351   87.1880 C.3    1612        0    0.0000
   9674 C        1336.7950   -7.4433   86.1420 C.3    1612        0    0.0000
   9675 H        1337.7448   -5.6364   86.8761 H      1612        0    0.0000
   9676 H        1337.2804   -6.7651   88.1445 H      1612        0    0.0000
   9677 H        1335.7340   -7.6965   86.0249 H      1612        0    0.0000
   9678 H        1337.1448   -7.0915   85.1634 H      1612        0    0.0000
   9679 C        1337.5853   -8.7420   86.5240 C.3    1613        0    0.0000
   9680 C        1339.0436   -8.6937   86.0545 C.3    1613        0    0.0000
   9681 H        1337.5448   -8.8734   87.6124 H      1613        0    0.0000
   9682 H        1337.0767   -9.6082   86.0829 H      1613        0    0.0000
   9683 H        1339.1219   -9.0798   85.0306 H      1613        0    0.0000
   9684 H        1339.3960   -7.6552   86.0276 H      1613        0    0.0000
   9685 C        1339.9944   -9.5262   86.9824 C.3    1614        0    0.0000
   9686 C        1341.4740   -9.2889   86.6607 C.3    1614        0    0.0000
   9687 H        1339.7896   -9.2616   88.0272 H      1614        0    0.0000
   9688 H        1339.7517  -10.5905   86.8736 H      1614        0    0.0000
   9689 H        1341.7159   -9.7050   85.6749 H      1614        0    0.0000
   9690 H        1341.6793   -8.2126   86.6072 H      1614        0    0.0000
   9691 C        1342.4248   -9.9324   87.7280 C.3    1615        0    0.0000
   9692 C        1343.8595  -10.0852   87.2109 C.3    1615        0    0.0000
   9693 H        1342.4148   -9.3102   88.6315 H      1615        0    0.0000
   9694 H        1342.0221  -10.9117   88.0154 H      1615        0    0.0000
   9695 H        1344.0627   -9.3340   86.4377 H      1615        0    0.0000
   9696 H        1344.5736   -9.9022   88.0234 H      1615        0    0.0000
   9697 C        1344.1272  -11.5098   86.6141 C.3    1616        0    0.0000
   9698 C        1345.5890  -11.6985   86.1938 C.3    1616        0    0.0000
   9699 H        1343.8503  -12.2640   87.3613 H      1616        0    0.0000
   9700 H        1343.4655  -11.6623   85.7524 H      1616        0    0.0000
   9701 H        1346.2361  -11.0270   86.7717 H      1616        0    0.0000
   9702 H        1345.9159  -12.7213   86.4183 H      1616        0    0.0000
   9703 C        1345.8088  -11.4216   84.6667 C.3    1617        0    0.0000
   9704 C        1347.2941  -11.3163   84.3033 C.3    1617        0    0.0000
   9705 H        1345.3365  -12.2263   84.0899 H      1617        0    0.0000
   9706 H        1345.2889  -10.4938   84.3972 H      1617        0    0.0000
   9707 H        1347.4043  -11.0519   83.2443 H      1617        0    0.0000
   9708 H        1347.7661  -10.5112   84.8798 H      1617        0    0.0000
   9709 C        1348.0681  -12.6524   84.5737 C.3    1618        0    0.0000
   9710 C        1349.5438  -12.5607   84.1700 C.3    1618        0    0.0000
   9711 H        1347.9844  -12.9001   85.6392 H      1618        0    0.0000
   9712 H        1347.5768  -13.4636   84.0222 H      1618        0    0.0000
   9713 H        1349.6553  -11.9026   83.2993 H      1618        0    0.0000
   9714 H        1350.1285  -12.1108   84.9818 H      1618        0    0.0000
   9715 C        1350.1536  -13.9630   83.8248 C.3    1619        0    0.0000
   9716 C        1351.6597  -14.0257   84.1019 C.3    1619        0    0.0000
   9717 H        1349.6311  -14.7296   84.4104 H      1619        0    0.0000
   9718 H        1349.9558  -14.1843   82.7687 H      1619        0    0.0000
   9719 H        1352.0781  -13.0122   84.1374 H      1619        0    0.0000
   9720 H        1351.8429  -14.4766   85.0850 H      1619        0    0.0000
   9721 C        1352.4298  -14.8526   83.0153 C.3    1620        0    0.0000
   9722 C        1353.9496  -14.7825   83.2010 C.3    1620        0    0.0000
   9723 H        1352.0930  -15.8957   83.0605 H      1620        0    0.0000
   9724 H        1352.1542  -14.4753   82.0226 H      1620        0    0.0000
   9725 H        1354.2487  -13.7622   83.4707 H      1620        0    0.0000
   9726 H        1354.2574  -15.4309   84.0305 H      1620        0    0.0000
   9727 C        1354.7264  -15.2118   81.9087 C.3    1621        0    0.0000
   9728 C        1356.1838  -15.5837   82.2038 C.3    1621        0    0.0000
   9729 H        1354.2069  -16.0621   81.4499 H      1621        0    0.0000
   9730 H        1354.6875  -14.3898   81.1833 H      1621        0    0.0000
   9731 H        1356.8405  -15.1803   81.4230 H      1621        0    0.0000
   9732 H        1356.5038  -15.1297   83.1499 H      1621        0    0.0000
   9733 C        1356.3954  -17.1345   82.2906 C.3    1622        0    0.0000
   9734 C        1357.8762  -17.5235   82.2205 C.3    1622        0    0.0000
   9735 H        1355.9545  -17.4998   83.2263 H      1622        0    0.0000
   9736 H        1355.8416  -17.6132   81.4734 H      1622        0    0.0000
   9737 H        1358.0056  -18.3952   81.5670 H      1622        0    0.0000
   9738 H        1358.4590  -16.7072   81.7761 H      1622        0    0.0000
   9739 C        1358.4700  -17.8580   83.6323 C.3    1623        0    0.0000
   9740 C        1359.9492  -18.2528   83.5617 C.3    1623        0    0.0000
   9741 H        1358.3444  -16.9850   84.2847 H      1623        0    0.0000
   9742 H        1357.8844  -18.6714   84.0785 H      1623        0    0.0000
   9743 H        1360.1282  -19.1508   84.1660 H      1623        0    0.0000
   9744 H        1360.2214  -18.5080   82.5300 H      1623        0    0.0000
   9745 C        1360.8945  -17.1082   84.0653 C.3    1624        0    0.0000
   9746 C        1362.0144  -16.7977   83.0659 C.3    1624        0    0.0000
   9747 H        1360.2938  -16.2086   84.2487 H      1624        0    0.0000
   9748 H        1361.3234  -17.4030   85.0310 H      1624        0    0.0000
   9749 H        1361.6036  -16.2830   82.1886 H      1624        0    0.0000
   9750 H        1362.7440  -16.1149   83.5190 H      1624        0    0.0000
   9751 C        1362.7610  -18.0912   82.5896 C.3    1625        0    0.0000
   9752 C        1363.6768  -17.8249   81.3898 C.3    1625        0    0.0000
   9753 H        1363.3456  -18.4909   83.4276 H      1625        0    0.0000
   9754 H        1362.0164  -18.8549   82.3324 H      1625        0    0.0000
   9755 H        1363.1072  -17.3528   80.5795 H      1625        0    0.0000
   9756 H        1364.4690  -17.1198   81.6704 H      1625        0    0.0000
   9757 C        1364.3381  -19.1373   80.8443 C.3    1626        0    0.0000
   9758 C        1365.8293  -18.9540   80.5421 C.3    1626        0    0.0000
   9759 H        1364.1995  -19.9366   81.5829 H      1626        0    0.0000
   9760 H        1363.8063  -19.4508   79.9374 H      1626        0    0.0000
   9761 H        1365.9790  -18.0716   79.9076 H      1626        0    0.0000
   9762 H        1366.3818  -18.7706   81.4719 H      1626        0    0.0000
   9763 C        1366.4480  -20.2030   79.8246 C.3    1627        0    0.0000
   9764 C        1367.9381  -20.0178   79.5176 C.3    1627        0    0.0000
   9765 H        1366.3018  -21.0847   80.4608 H      1627        0    0.0000
   9766 H        1365.8931  -20.3886   78.8966 H      1627        0    0.0000
   9767 H        1368.0808  -19.1577   78.8517 H      1627        0    0.0000
   9768 H        1368.4875  -19.7961   80.4409 H      1627        0    0.0000
   9769 C        1368.5687  -21.2864   78.8467 C.3    1628        0    0.0000
   9770 C        1369.9041  -21.6797   79.4880 C.3    1628        0    0.0000
   9771 H        1367.8562  -22.1174   78.9218 H      1628        0    0.0000
   9772 H        1368.7092  -21.0877   77.7770 H      1628        0    0.0000
   9773 H        1370.7047  -21.0255   79.1209 H      1628        0    0.0000
   9774 H        1369.8553  -21.5385   80.5748 H      1628        0    0.0000
   9775 C        1370.2913  -23.1689   79.1887 C.3    1629        0    0.0000
   9776 C        1371.8085  -23.3687   79.1031 C.3    1629        0    0.0000
   9777 H        1369.8713  -23.8083   79.9751 H      1629        0    0.0000
   9778 H        1369.8177  -23.4751   78.2476 H      1629        0    0.0000
   9779 H        1372.3217  -22.6211   79.7204 H      1629        0    0.0000
   9780 H        1372.0818  -24.3516   79.5063 H      1629        0    0.0000
   9781 C        1372.3400  -23.2603   77.6322 C.3    1630        0    0.0000
   9782 C        1373.7552  -23.8289   77.4827 C.3    1630        0    0.0000
   9783 H        1371.6488  -23.7917   76.9664 H      1630        0    0.0000
   9784 H        1372.3237  -22.2066   77.3271 H      1630        0    0.0000
   9785 H        1373.9750  -24.5135   78.3112 H      1630        0    0.0000
   9786 H        1373.8286  -24.4175   76.5597 H      1630        0    0.0000
   9787 C        1374.8473  -22.7046   77.4529 C.3    1631        0    0.0000
   9788 C        1376.1986  -23.1932   77.9860 C.3    1631        0    0.0000
   9789 H        1374.9570  -22.3454   76.4222 H      1631        0    0.0000
   9790 H        1374.4941  -21.8529   78.0474 H      1631        0    0.0000
   9791 H        1376.9554  -22.4076   77.8690 H      1631        0    0.0000
   9792 H        1376.1256  -23.4030   79.0604 H      1631        0    0.0000
   9793 C        1376.6947  -24.4861   77.2514 C.3    1632        0    0.0000
   9794 C        1378.1340  -24.8530   77.6294 C.3    1632        0    0.0000
   9795 H        1376.0184  -25.3142   77.4974 H      1632        0    0.0000
   9796 H        1376.6188  -24.3287   76.1683 H      1632        0    0.0000
   9797 H        1378.7936  -23.9889   77.4821 H      1632        0    0.0000
   9798 H        1378.1886  -25.1132   78.6938 H      1632        0    0.0000
   9799 C        1378.6815  -26.0561   76.7866 C.3    1633        0    0.0000
   9800 C        1380.2106  -26.1483   76.8312 C.3    1633        0    0.0000
   9801 H        1378.2374  -26.9848   77.1661 H      1633        0    0.0000
   9802 H        1378.3413  -25.9452   75.7495 H      1633        0    0.0000
   9803 H        1380.6509  -25.1488   76.7278 H      1633        0    0.0000
   9804 H        1380.5359  -26.5367   77.8042 H      1633        0    0.0000
   9805 C        1380.7834  -27.0720   75.7014 C.3    1634        0    0.0000
   9806 C        1382.3148  -27.0411   75.6465 C.3    1634        0    0.0000
   9807 H        1380.4338  -28.0977   75.8721 H      1634        0    0.0000
   9808 H        1380.3661  -26.7530   74.7383 H      1634        0    0.0000
   9809 H        1382.6555  -26.1138   75.1694 H      1634        0    0.0000
   9810 H        1382.7277  -27.0425   76.6629 H      1634        0    0.0000
   9811 C        1382.9059  -28.2611   74.8593 C.3    1635        0    0.0000
   9812 C        1384.4097  -28.4337   75.0992 C.3    1635        0    0.0000
   9813 H        1382.3701  -29.1697   75.1612 H      1635        0    0.0000
   9814 H        1382.7092  -28.1203   73.7892 H      1635        0    0.0000
   9815 H        1384.8486  -27.4851   75.4330 H      1635        0    0.0000
   9816 H        1384.5815  -29.1604   75.9028 H      1635        0    0.0000
   9817 C        1385.1652  -28.9149   73.8127 C.3    1636        0    0.0000
   9818 C        1386.5066  -29.5796   74.1412 C.3    1636        0    0.0000
   9819 H        1384.5219  -29.6157   73.2662 H      1636        0    0.0000
   9820 H        1385.3241  -28.0529   73.1527 H      1636        0    0.0000
   9821 H        1387.0239  -29.0147   74.9265 H      1636        0    0.0000
   9822 H        1386.3392  -30.5889   74.5373 H      1636        0    0.0000
   9823 C        1387.4438  -29.6774   72.8884 C.3    1637        0    0.0000
   9824 C        1388.8373  -30.2063   73.2453 C.3    1637        0    0.0000
   9825 H        1386.9724  -30.3313   72.1443 H      1637        0    0.0000
   9826 H        1387.5245  -28.6845   72.4289 H      1637        0    0.0000
   9827 H        1389.2311  -29.6703   74.1176 H      1637        0    0.0000
   9828 H        1388.7771  -31.2649   73.5269 H      1637        0    0.0000
   9829 C        1389.8514  -30.0559   72.0595 C.3    1638        0    0.0000
   9830 C        1391.1282  -30.8748   72.2794 C.3    1638        0    0.0000
   9831 H        1389.3586  -30.3695   71.1307 H      1638        0    0.0000
   9832 H        1390.1013  -28.9943   71.9404 H      1638        0    0.0000
   9833 H        1391.9602  -30.4323   71.7177 H      1638        0    0.0000
   9834 H        1391.4138  -30.8487   73.3383 H      1638        0    0.0000
   9835 C        1390.9589  -32.3695   71.8383 C.3    1639        0    0.0000
   9836 C        1392.2526  -33.1743   72.0046 C.3    1639        0    0.0000
   9837 H        1390.1544  -32.8238   72.4301 H      1639        0    0.0000
   9838 H        1390.6322  -32.3943   70.7913 H      1639        0    0.0000
   9839 H        1392.3131  -33.9525   71.2338 H      1639        0    0.0000
   9840 H        1393.1226  -32.5215   71.8623 H      1639        0    0.0000
   9841 C        1392.3540  -33.8511   73.4150 C.3    1640        0    0.0000
   9842 C        1393.7695  -33.7718   73.9969 C.3    1640        0    0.0000
   9843 H        1391.6410  -33.3651   74.0925 H      1640        0    0.0000
   9844 H        1392.0415  -34.8990   73.3277 H      1640        0    0.0000
   9845 H        1393.9941  -32.7420   74.3012 H      1640        0    0.0000
   9846 H        1393.8398  -34.3897   74.9009 H      1640        0    0.0000
   9847 C        1394.8596  -34.2458   72.9749 C.3    1641        0    0.0000
   9848 C        1396.2524  -33.7071   73.3196 C.3    1641        0    0.0000
   9849 H        1394.8744  -35.3427   72.9570 H      1641        0    0.0000
   9850 H        1394.5679  -33.9182   71.9693 H      1641        0    0.0000
   9851 H        1396.2036  -32.6260   73.4997 H      1641        0    0.0000
   9852 H        1396.6135  -34.1651   74.2488 H      1641        0    0.0000
   9853 C        1397.2948  -33.9834   72.1817 C.3    1642        0    0.0000
   9854 C        1398.5127  -34.7644   72.6870 C.3    1642        0    0.0000
   9855 H        1396.7994  -34.5391   71.3758 H      1642        0    0.0000
   9856 H        1397.6135  -33.0249   71.7538 H      1642        0    0.0000
   9857 H        1399.1357  -34.1212   73.3210 H      1642        0    0.0000
   9858 H        1398.1877  -35.6044   73.3134 H      1642        0    0.0000
   9859 C        1399.3910  -35.3197   71.5132 C.3    1643        0    0.0000
   9860 C        1400.5367  -36.2061   72.0140 C.3    1643        0    0.0000
   9861 H        1398.7484  -35.8869   70.8283 H      1643        0    0.0000
   9862 H        1399.7921  -34.4740   70.9410 H      1643        0    0.0000
   9863 H        1401.2014  -35.6280   72.6677 H      1643        0    0.0000
   9864 H        1400.1381  -37.0299   72.6190 H      1643        0    0.0000
   9865 C        1401.3817  -36.8059   70.8377 C.3    1644        0    0.0000
   9866 C        1402.8862  -36.5901   71.0344 C.3    1644        0    0.0000
   9867 H        1401.1628  -37.8778   70.7560 H      1644        0    0.0000
   9868 H        1401.0553  -36.3452   69.8971 H      1644        0    0.0000
   9869 H        1403.1077  -35.5173   71.0947 H      1644        0    0.0000
   9870 H        1403.2085  -37.0323   71.9852 H      1644        0    0.0000
   9871 C        1403.7330  -37.2163   69.8732 C.3    1645        0    0.0000
   9872 C        1405.0858  -37.7465   70.3615 C.3    1645        0    0.0000
   9873 H        1403.1555  -38.0270   69.4118 H      1645        0    0.0000
   9874 H        1403.8849  -36.4563   69.0967 H      1645        0    0.0000
   9875 H        1405.6421  -36.9480   70.8676 H      1645        0    0.0000
   9876 H        1404.9331  -38.5421   71.1010 H      1645        0    0.0000
   9877 C        1405.9620  -38.3078   69.1889 C.3    1646        0    0.0000
   9878 C        1407.0774  -39.2325   69.6886 C.3    1646        0    0.0000
   9879 H        1405.3120  -38.8469   68.4886 H      1646        0    0.0000
   9880 H        1406.3923  -37.4649   68.6341 H      1646        0    0.0000
   9881 H        1407.5438  -38.8082   70.5864 H      1646        0    0.0000
   9882 H        1406.6587  -40.2037   69.9800 H      1646        0    0.0000
   9883 C        1408.1864  -39.4650   68.6051 C.3    1647        0    0.0000
   9884 C        1408.9371  -40.7845   68.8163 C.3    1647        0    0.0000
   9885 H        1407.7192  -39.4526   67.6126 H      1647        0    0.0000
   9886 H        1408.8896  -38.6235   68.6328 H      1647        0    0.0000
   9887 H        1409.3252  -40.8366   69.8411 H      1647        0    0.0000
   9888 H        1408.2502  -41.6314   68.6961 H      1647        0    0.0000
   9889 C        1410.1307  -40.9558   67.8146 C.3    1648        0    0.0000
   9890 C        1411.0873  -42.0764   68.2369 C.3    1648        0    0.0000
   9891 H        1409.7271  -41.1623   66.8157 H      1648        0    0.0000
   9892 H        1410.6730  -40.0047   67.7448 H      1648        0    0.0000
   9893 H        1411.2554  -42.0390   69.3203 H      1648        0    0.0000
   9894 H        1410.6393  -43.0545   68.0212 H      1648        0    0.0000
   9895 C        1412.4714  -41.9824   67.5070 C.3    1649        0    0.0000
   9896 C        1412.9629  -43.3483   67.0151 C.3    1649        0    0.0000
   9897 H        1412.3790  -41.2893   66.6617 H      1649        0    0.0000
   9898 H        1413.2051  -41.5442   68.1950 H      1649        0    0.0000
   9899 H        1412.8804  -44.0897   67.8195 H      1649        0    0.0000
   9900 H        1412.3280  -43.7029   66.1936 H      1649        0    0.0000
   9901 C        1414.4498  -43.3023   66.5211 C.3    1650        0    0.0000
   9902 C        1414.7998  -44.4922   65.6207 C.3    1650        0    0.0000
   9903 H        1414.6141  -42.3612   65.9817 H      1650        0    0.0000
   9904 H        1415.1123  -43.2843   67.3952 H      1650        0    0.0000
   9905 H        1414.2095  -45.3700   65.9110 H      1650        0    0.0000
   9906 H        1414.5374  -44.2662   64.5797 H      1650        0    0.0000
   9907 C        1416.3218  -44.8614   65.6891 C.3    1651        0    0.0000
   9908 C        1416.9767  -44.8846   64.3036 C.3    1651        0    0.0000
   9909 H        1416.8328  -44.1364   66.3347 H      1651        0    0.0000
   9910 H        1416.4265  -45.8413   66.1712 H      1651        0    0.0000
   9911 H        1416.3528  -45.4520   63.6020 H      1651        0    0.0000
   9912 H        1417.0511  -43.8650   63.9056 H      1651        0    0.0000
   9913 C        1418.4092  -45.5206   64.3343 C.3    1652        0    0.0000
   9914 C        1419.2598  -45.0947   63.1324 C.3    1652        0    0.0000
   9915 H        1418.9053  -45.2295   65.2683 H      1652        0    0.0000
   9916 H        1418.3104  -46.6130   64.3570 H      1652        0    0.0000
   9917 H        1418.6179  -44.9224   62.2596 H      1652        0    0.0000
   9918 H        1419.7631  -44.1436   63.3460 H      1652        0    0.0000
   9919 C        1420.3416  -46.1665   62.7605 C.3    1653        0    0.0000
   9920 C        1421.6927  -45.8830   63.4259 C.3    1653        0    0.0000
   9921 H        1419.9755  -47.1567   63.0592 H      1653        0    0.0000
   9922 H        1420.4564  -46.1890   61.6698 H      1653        0    0.0000
   9923 H        1422.0249  -44.8658   63.1842 H      1653        0    0.0000
   9924 H        1421.5922  -45.9307   64.5172 H      1653        0    0.0000
   9925 C        1422.8008  -46.8966   62.9760 C.3    1654        0    0.0000
   9926 C        1424.2098  -46.4169   63.3415 C.3    1654        0    0.0000
   9927 H        1422.6014  -47.8689   63.4433 H      1654        0    0.0000
   9928 H        1422.7238  -47.0464   61.8919 H      1654        0    0.0000
   9929 H        1424.3680  -45.3967   62.9704 H      1654        0    0.0000
   9930 H        1424.3221  -46.3764   64.4321 H      1654        0    0.0000
   9931 C        1425.3256  -47.3475   62.7528 C.3    1655        0    0.0000
   9932 C        1426.0481  -48.1485   63.8415 C.3    1655        0    0.0000
   9933 H        1424.8693  -48.0292   62.0243 H      1655        0    0.0000
   9934 H        1426.0448  -46.7308   62.1996 H      1655        0    0.0000
   9935 H        1426.7441  -47.4992   64.3867 H      1655        0    0.0000
   9936 H        1425.3242  -48.5221   64.5765 H      1655        0    0.0000
   9937 C        1426.8453  -49.3640   63.2545 C.3    1656        0    0.0000
   9938 C        1428.3577  -49.1153   63.2424 C.3    1656        0    0.0000
   9939 H        1426.6158  -50.2574   63.8485 H      1656        0    0.0000
   9940 H        1426.4883  -49.5624   62.2364 H      1656        0    0.0000
   9941 H        1428.5758  -48.1465   62.7759 H      1656        0    0.0000
   9942 H        1428.7386  -49.0631   64.2697 H      1656        0    0.0000
   9943 C        1429.1378  -50.2347   62.4704 C.3    1657        0    0.0000
   9944 C        1429.7806  -49.7113   61.1814 C.3    1657        0    0.0000
   9945 H        1429.9072  -50.6504   63.1327 H      1657        0    0.0000
   9946 H        1428.4449  -51.0535   62.2396 H      1657        0    0.0000
   9947 H        1429.0779  -49.0585   60.6487 H      1657        0    0.0000
   9948 H        1430.6593  -49.0996   61.4207 H      1657        0    0.0000
   9949 C        1430.2188  -50.8714   60.2223 C.3    1658        0    0.0000
   9950 C        1431.6737  -50.7267   59.7625 C.3    1658        0    0.0000
   9951 H        1430.0813  -51.8289   60.7397 H      1658        0    0.0000
   9952 H        1429.5491  -50.8838   59.3535 H      1658        0    0.0000
   9953 H        1431.9126  -49.6687   59.5974 H      1658        0    0.0000
   9954 H        1432.3531  -51.0846   60.5460 H      1658        0    0.0000
   9955 C        1431.9614  -51.5215   58.4423 C.3    1659        0    0.0000
   9956 C        1433.1428  -52.4866   58.5911 C.3    1659        0    0.0000
   9957 H        1431.0574  -52.0745   58.1585 H      1659        0    0.0000
   9958 H        1432.1598  -50.8060   57.6349 H      1659        0    0.0000
   9959 H        1432.8688  -53.3174   59.2528 H      1659        0    0.0000
   9960 H        1433.3928  -52.9281   57.6182 H      1659        0    0.0000
   9961 C        1434.4180  -51.7804   59.1678 C.3    1660        0    0.0000
   9962 C        1435.5089  -52.7823   59.5613 C.3    1660        0    0.0000
   9963 H        1434.8038  -51.0794   58.4174 H      1660        0    0.0000
   9964 H        1434.1263  -51.1804   60.0389 H      1660        0    0.0000
   9965 H        1435.8977  -52.5427   60.5589 H      1660        0    0.0000
   9966 H        1435.0870  -53.7931   59.6222 H      1660        0    0.0000
   9967 C        1436.7010  -52.7929   58.5434 C.3    1661        0    0.0000
   9968 C        1437.6658  -53.9579   58.7909 C.3    1661        0    0.0000
   9969 H        1436.2963  -52.8495   57.5254 H      1661        0    0.0000
   9970 H        1437.2372  -51.8385   58.6167 H      1661        0    0.0000
   9971 H        1438.1964  -53.8118   59.7400 H      1661        0    0.0000
   9972 H        1437.1061  -54.8966   58.8841 H      1661        0    0.0000
   9973 C        1438.7203  -54.1105   57.6409 C.3    1662        0    0.0000
   9974 C        1439.3008  -55.5272   57.5692 C.3    1662        0    0.0000
   9975 H        1438.2439  -53.8506   56.6875 H      1662        0    0.0000
   9976 H        1439.5250  -53.3820   57.8000 H      1662        0    0.0000
   9977 H        1439.1509  -56.0440   58.5254 H      1662        0    0.0000
   9978 H        1438.7703  -56.1131   56.8082 H      1662        0    0.0000
   9979 C        1440.8311  -55.5259   57.2298 C.3    1663        0    0.0000
   9980 C        1441.3895  -56.9429   57.0585 C.3    1663        0    0.0000
   9981 H        1440.9893  -54.9459   56.3120 H      1663        0    0.0000
   9982 H        1441.3702  -55.0033   58.0296 H      1663        0    0.0000
   9983 H        1441.1146  -57.5622   57.9214 H      1663        0    0.0000
   9984 H        1440.9448  -57.4182   56.1753 H      1663        0    0.0000
   9985 C        1442.9496  -56.9525   56.9062 C.3    1664        0    0.0000
   9986 C        1443.4419  -58.1219   56.0465 C.3    1664        0    0.0000
   9987 H        1443.2676  -56.0003   56.4636 H      1664        0    0.0000
   9988 H        1443.4019  -57.0027   57.9043 H      1664        0    0.0000
   9989 H        1442.7545  -58.9720   56.1384 H      1664        0    0.0000
   9990 H        1443.4478  -57.8344   54.9879 H      1664        0    0.0000
   9991 C        1444.8823  -58.5909   56.4505 C.3    1665        0    0.0000
   9992 C        1445.6676  -59.1478   55.2579 C.3    1665        0    0.0000
   9993 H        1445.4197  -57.7423   56.8916 H      1665        0    0.0000
   9994 H        1444.7990  -59.3532   57.2350 H      1665        0    0.0000
   9995 H        1445.1289  -59.9948   54.8152 H      1665        0    0.0000
   9996 H        1445.7533  -58.3847   54.4744 H      1665        0    0.0000
   9997 C        1447.1067  -59.6201   55.6625 C.3    1666        0    0.0000
   9998 C        1447.9749  -59.9475   54.4427 C.3    1666        0    0.0000
   9999 H        1447.5813  -58.8334   56.2620 H      1666        0    0.0000
  10000 H        1447.0204  -60.5012   56.3104 H      1666        0    0.0000
  10001 H        1447.3489  -60.3306   53.6274 H      1666        0    0.0000
  10002 H        1448.4567  -59.0358   54.0683 H      1666        0    0.0000
  10003 C        1449.0833  -61.0070   54.7696 C.3    1667        0    0.0000
  10004 C        1450.1133  -61.1368   53.6421 C.3    1667        0    0.0000
  10005 H        1449.5822  -60.7201   55.7036 H      1667        0    0.0000
  10006 H        1448.6029  -61.9759   54.9538 H      1667        0    0.0000
  10007 H        1449.6194  -61.4587   52.7168 H      1667        0    0.0000
  10008 H        1450.5675  -60.1603   53.4333 H      1667        0    0.0000
  10009 C        1451.2498  -62.1589   53.9903 C.3    1668        0    0.0000
  10010 C        1452.3604  -62.1745   52.9343 C.3    1668        0    0.0000
  10011 H        1451.6674  -61.9022   54.9718 H      1668        0    0.0000
  10012 H        1450.8086  -63.1587   54.0872 H      1668        0    0.0000
  10013 H        1451.9253  -62.1042   51.9297 H      1668        0    0.0000
  10014 H        1453.0098  -61.2990   53.0583 H      1668        0    0.0000
  10015 C        1453.2386  -63.4705   53.0150 C.3    1669        0    0.0000
  10016 C        1454.5046  -63.3687   52.1571 C.3    1669        0    0.0000
  10017 H        1453.5081  -63.6504   54.0632 H      1669        0    0.0000
  10018 H        1452.6343  -64.3280   52.6935 H      1669        0    0.0000
  10019 H        1454.2344  -63.2546   51.0999 H      1669        0    0.0000
  10020 H        1455.0760  -62.4743   52.4345 H      1669        0    0.0000
  10021 C        1455.4283  -64.6260   52.3095 C.3    1670        0    0.0000
  10022 C        1456.7327  -64.4879   51.5167 C.3    1670        0    0.0000
  10023 H        1455.6490  -64.7758   53.3736 H      1670        0    0.0000
  10024 H        1454.8766  -65.5130   51.9743 H      1670        0    0.0000
  10025 H        1456.5177  -64.1569   50.4931 H      1670        0    0.0000
  10026 H        1457.3687  -63.7174   51.9698 H      1670        0    0.0000
  10027 C        1457.5353  -65.8331   51.4545 C.3    1671        0    0.0000
  10028 C        1458.8693  -65.6799   50.7153 C.3    1671        0    0.0000
  10029 H        1457.7108  -66.1877   52.4777 H      1671        0    0.0000
  10030 H        1456.9161  -66.5918   50.9600 H      1671        0    0.0000
  10031 H        1458.6908  -65.3759   49.6764 H      1671        0    0.0000
  10032 H        1459.4666  -64.8849   51.1781 H      1671        0    0.0000
  10033 C        1459.7051  -67.0062   50.7171 C.3    1672        0    0.0000
  10034 C        1461.0640  -66.8372   50.0288 C.3    1672        0    0.0000
  10035 H        1459.8469  -67.3334   51.7546 H      1672        0    0.0000
  10036 H        1459.1245  -67.7907   50.2160 H      1672        0    0.0000
  10037 H        1460.9246  -66.4577   49.0090 H      1672        0    0.0000
  10038 H        1461.6660  -66.0917   50.5628 H      1672        0    0.0000
  10039 C        1461.8674  -68.1817   49.9622 C.3    1673        0    0.0000
  10040 C        1463.2142  -68.0188   49.2489 C.3    1673        0    0.0000
  10041 H        1462.0247  -68.5508   50.9833 H      1673        0    0.0000
  10042 H        1461.2570  -68.9333   49.4463 H      1673        0    0.0000
  10043 H        1463.0565  -67.6541   48.2264 H      1673        0    0.0000
  10044 H        1463.8229  -67.2643   49.7623 H      1673        0    0.0000
  10045 C        1464.0203  -69.3620   49.1875 C.3    1674        0    0.0000
  10046 C        1465.3778  -69.1937   48.4966 C.3    1674        0    0.0000
  10047 H        1464.1619  -69.7363   50.2090 H      1674        0    0.0000
  10048 H        1463.4189  -70.1113   48.6579 H      1674        0    0.0000
  10049 H        1465.2361  -68.8243   47.4734 H      1674        0    0.0000
  10050 H        1465.9772  -68.4406   49.0231 H      1674        0    0.0000
  10051 C        1466.1870  -70.5353   48.4417 C.3    1675        0    0.0000
  10052 C        1467.5310  -70.3739   47.7227 C.3    1675        0    0.0000
  10053 H        1466.3490  -70.8928   49.4662 H      1675        0    0.0000
  10054 H        1465.5785  -71.2948   47.9356 H      1675        0    0.0000
  10055 H        1467.3687  -70.0234   46.6960 H      1675        0    0.0000
  10056 H        1468.1366  -69.6093   48.2246 H      1675        0    0.0000
  10057 C        1468.3447  -71.7131   47.6768 C.3    1676        0    0.0000
  10058 C        1469.6923  -71.5497   46.9653 C.3    1676        0    0.0000
  10059 H        1468.5016  -72.0669   48.7033 H      1676        0    0.0000
  10060 H        1467.7415  -72.4760   47.1694 H      1676        0    0.0000
  10061 H        1469.5348  -71.2085   45.9346 H      1676        0    0.0000
  10062 H        1470.2904  -70.7775   47.4648 H      1676        0    0.0000
  10063 C        1470.5140  -72.8845   46.9355 C.3    1677        0    0.0000
  10064 C        1471.8419  -72.7325   46.1853 C.3    1677        0    0.0000
  10065 H        1470.6998  -73.2085   47.9670 H      1677        0    0.0000
  10066 H        1469.9036  -73.6653   46.4651 H      1677        0    0.0000
  10067 H        1471.6555  -72.4196   45.1504 H      1677        0    0.0000
  10068 H        1472.4475  -71.9437   46.6486 H      1677        0    0.0000
  10069 C        1472.6711  -74.0626   46.1694 C.3    1678        0    0.0000
  10070 C        1474.0059  -73.9062   45.4325 C.3    1678        0    0.0000
  10071 H        1472.8478  -74.3814   47.2041 H      1678        0    0.0000
  10072 H        1472.0698  -74.8486   45.6959 H      1678        0    0.0000
  10073 H        1473.8284  -73.6052   44.3926 H      1678        0    0.0000
  10074 H        1474.5995  -73.1079   45.8947 H      1678        0    0.0000
  10075 C        1474.8466  -75.2293   45.4389 C.3    1679        0    0.0000
  10076 C        1476.1603  -75.0868   44.6625 C.3    1679        0    0.0000
  10077 H        1475.0529  -75.5121   46.4786 H      1679        0    0.0000
  10078 H        1474.2404  -76.0355   45.0076 H      1679        0    0.0000
  10079 H        1475.9535  -74.8164   43.6196 H      1679        0    0.0000
  10080 H        1476.7610  -74.2719   45.0859 H      1679        0    0.0000
  10081 C        1477.0094  -76.4043   44.6841 C.3    1680        0    0.0000
  10082 C        1478.3175  -76.2653   43.8976 C.3    1680        0    0.0000
  10083 H        1477.2238  -76.6698   45.7268 H      1680        0    0.0000
  10084 H        1476.4056  -77.2208   44.2689 H      1680        0    0.0000
  10085 H        1478.1023  -76.0206   42.8500 H      1680        0    0.0000
  10086 H        1478.9115  -75.4352   44.2994 H      1680        0    0.0000
  10087 C        1479.1804  -77.5733   43.9440 C.3    1681        0    0.0000
  10088 C        1480.4714  -77.4468   43.1276 C.3    1681        0    0.0000
  10089 H        1479.4180  -77.8033   44.9900 H      1681        0    0.0000
  10090 H        1478.5773  -78.4084   43.5669 H      1681        0    0.0000
  10091 H        1480.2335  -77.2278   42.0793 H      1681        0    0.0000
  10092 H        1481.0695  -76.6046   43.4975 H      1681        0    0.0000
  10093 C        1481.3419  -78.7492   43.1867 C.3    1682        0    0.0000
  10094 C        1482.6261  -78.6276   42.3591 C.3    1682        0    0.0000
  10095 H        1481.5881  -78.9626   44.2343 H      1682        0    0.0000
  10096 H        1480.7405  -79.5931   42.8263 H      1682        0    0.0000
  10097 H        1482.3792  -78.4319   41.3083 H      1682        0    0.0000
  10098 H        1483.2189  -77.7732   42.7080 H      1682        0    0.0000
  10099 C        1483.5087  -79.9209   42.4384 C.3    1683        0    0.0000
  10100 C        1484.7794  -79.8098   41.5886 C.3    1683        0    0.0000
  10101 H        1483.7725  -80.1052   43.4871 H      1683        0    0.0000
  10102 H        1482.9095  -80.7787   42.1087 H      1683        0    0.0000
  10103 H        1485.1855  -78.7926   41.6504 H      1683        0    0.0000
  10104 H        1485.5532  -80.4823   41.9792 H      1683        0    0.0000
  10105 C        1484.5194  -80.1594   40.0827 C.3    1684        0    0.0000
  10106 C        1485.7772  -79.9947   39.2226 C.3    1684        0    0.0000
  10107 H        1484.1516  -81.1910   40.0175 H      1684        0    0.0000
  10108 H        1483.7173  -79.5144   39.7033 H      1684        0    0.0000
  10109 H        1485.5055  -79.9671   38.1601 H      1684        0    0.0000
  10110 H        1486.2644  -79.0377   39.4480 H      1684        0    0.0000
  10111 C        1486.8088  -81.1529   39.4505 C.3    1685        0    0.0000
  10112 C        1488.2579  -80.6542   39.4209 C.3    1685        0    0.0000
  10113 H        1486.5956  -81.6319   40.4141 H      1685        0    0.0000
  10114 H        1486.6583  -81.9175   38.6783 H      1685        0    0.0000
  10115 H        1488.5432  -80.3876   38.3956 H      1685        0    0.0000
  10116 H        1488.3539  -79.7414   40.0218 H      1685        0    0.0000
  10117 C        1489.2660  -81.7249   39.9638 C.3    1686        0    0.0000
  10118 C        1490.5214  -81.8355   39.0916 C.3    1686        0    0.0000
  10119 H        1489.5441  -81.4598   40.9913 H      1686        0    0.0000
  10120 H        1488.7571  -82.6955   40.0154 H      1686        0    0.0000
  10121 H        1490.2537  -82.1981   38.0913 H      1686        0    0.0000
  10122 H        1490.9744  -80.8455   38.9571 H      1686        0    0.0000
  10123 C        1491.5908  -82.8009   39.7094 C.3    1687        0    0.0000
  10124 C        1492.5685  -83.3350   38.6568 C.3    1687        0    0.0000
  10125 H        1492.1390  -82.2655   40.4946 H      1687        0    0.0000
  10126 H        1491.0732  -83.6350   40.1997 H      1687        0    0.0000
  10127 H        1492.0237  -83.8981   37.8889 H      1687        0    0.0000
  10128 H        1493.0624  -82.5001   38.1442 H      1687        0    0.0000
  10129 C        1493.6654  -84.2643   39.2820 C.3    1688        0    0.0000
  10130 C        1494.6813  -84.7456   38.2403 C.3    1688        0    0.0000
  10131 H        1494.1781  -83.7169   40.0826 H      1688        0    0.0000
  10132 H        1493.1736  -85.1242   39.7532 H      1688        0    0.0000
  10133 H        1494.2242  -85.5018   37.5903 H      1688        0    0.0000
  10134 H        1494.9795  -83.9119   37.5923 H      1688        0    0.0000
  10135 C        1495.9653  -85.3563   38.9006 C.3    1689        0    0.0000
  10136 C        1497.0056  -85.7852   37.8599 C.3    1689        0    0.0000
  10137 H        1496.3992  -84.6144   39.5825 H      1689        0    0.0000
  10138 H        1495.6719  -86.2160   39.5156 H      1689        0    0.0000
  10139 H        1497.4122  -84.9036   37.3491 H      1689        0    0.0000
  10140 H        1497.8503  -86.2803   38.3545 H      1689        0    0.0000
  10141 C        1496.4067  -86.7591   36.7876 C.3    1690        0    0.0000
  10142 C        1497.4249  -87.1248   35.7020 C.3    1690        0    0.0000
  10143 H        1496.0527  -87.6665   37.2924 H      1690        0    0.0000
  10144 H        1495.5261  -86.2872   36.3339 H      1690        0    0.0000
  10145 H        1496.9215  -87.6319   34.8696 H      1690        0    0.0000
  10146 H        1497.8777  -86.2149   35.2891 H      1690        0    0.0000
  10147 C        1498.5645  -88.0545   36.2451 C.3    1691        0    0.0000
  10148 C        1499.8718  -87.8888   35.4625 C.3    1691        0    0.0000
  10149 H        1498.7297  -87.8285   37.3058 H      1691        0    0.0000
  10150 H        1498.2251  -89.0965   36.1942 H      1691        0    0.0000
  10151 H        1499.8323  -88.4746   34.5357 H      1691        0    0.0000
  10152 H        1500.0031  -86.8404   35.1670 H      1691        0    0.0000
  10153 C        1501.1226  -88.3403   36.2926 C.3    1692        0    0.0000
  10154 C        1502.3846  -88.4480   35.4296 C.3    1692        0    0.0000
  10155 H        1501.2839  -87.6233   37.1072 H      1692        0    0.0000
  10156 H        1500.9047  -89.3073   36.7627 H      1692        0    0.0000
  10157 H        1502.1836  -88.0677   34.4202 H      1692        0    0.0000
  10158 H        1503.1816  -87.8217   35.8491 H      1692        0    0.0000
  10159 C        1502.9054  -89.9223   35.3198 C.3    1693        0    0.0000
  10160 C        1504.2161  -90.0183   34.5310 C.3    1693        0    0.0000
  10161 H        1503.0447  -90.3244   36.3311 H      1693        0    0.0000
  10162 H        1502.1323  -90.5357   34.8406 H      1693        0    0.0000
  10163 H        1504.0062  -90.0444   33.4547 H      1693        0    0.0000
  10164 H        1504.8295  -89.1266   34.7110 H      1693        0    0.0000
  10165 C        1505.0487  -91.2900   34.9147 C.3    1694        0    0.0000
  10166 C        1506.1555  -91.5882   33.8971 C.3    1694        0    0.0000
  10167 H        1505.4836  -91.1406   35.9106 H      1694        0    0.0000
  10168 H        1504.3689  -92.1474   34.9931 H      1694        0    0.0000
  10169 H        1506.4980  -92.6247   34.0068 H      1694        0    0.0000
  10170 H        1505.7643  -91.4922   32.8767 H      1694        0    0.0000
  10171 C        1507.3854  -90.6298   34.0591 C.3    1695        0    0.0000
  10172 C        1508.4728  -90.8982   33.0128 C.3    1695        0    0.0000
  10173 H        1507.0375  -89.5922   33.9824 H      1695        0    0.0000
  10174 H        1507.7970  -90.7503   35.0688 H      1695        0    0.0000
  10175 H        1508.0137  -91.1152   32.0404 H      1695        0    0.0000
  10176 H        1509.0923  -90.0031   32.8760 H      1695        0    0.0000
  10177 C        1509.3993  -92.0975   33.4134 C.3    1696        0    0.0000
  10178 C        1509.9128  -92.8680   32.1920 C.3    1696        0    0.0000
  10179 H        1510.2443  -91.7119   33.9973 H      1696        0    0.0000
  10180 H        1508.8403  -92.7707   34.0750 H      1696        0    0.0000
  10181 H        1509.8676  -93.9475   32.3819 H      1696        0    0.0000
  10182 H        1509.2683  -92.6730   31.3259 H      1696        0    0.0000
  10183 C        1511.3865  -92.4815   31.8223 C.3    1697        0    0.0000
  10184 C        1512.0002  -93.4440   30.7996 C.3    1697        0    0.0000
  10185 H        1511.3951  -91.4579   31.4278 H      1697        0    0.0000
  10186 H        1511.9899  -92.4712   32.7385 H      1697        0    0.0000
  10187 H        1511.4485  -94.3922   30.7972 H      1697        0    0.0000
  10188 H        1511.9121  -93.0256   29.7893 H      1697        0    0.0000
  10189 C        1513.5114  -93.7394   31.0942 C.3    1698        0    0.0000
  10190 C        1513.9786  -95.0572   30.4664 C.3    1698        0    0.0000
  10191 H        1514.1154  -92.9064   30.7134 H      1698        0    0.0000
  10192 H        1513.6611  -93.7663   32.1806 H      1698        0    0.0000
  10193 H        1513.5406  -95.9066   31.0050 H      1698        0    0.0000
  10194 H        1513.6263  -95.1259   29.4298 H      1698        0    0.0000
  10195 C        1515.5398  -95.2010   30.4801 C.3    1699        0    0.0000
  10196 C        1516.0282  -96.3191   29.5525 C.3    1699        0    0.0000
  10197 H        1515.9855  -94.2438   30.1826 H      1699        0    0.0000
  10198 H        1515.8680  -95.3953   31.5087 H      1699        0    0.0000
  10199 H        1515.5839  -97.2767   29.8512 H      1699        0    0.0000
  10200 H        1515.6982  -96.1258   28.5243 H      1699        0    0.0000
  10201 C        1517.5895  -96.4611   29.5641 C.3    1700        0    0.0000
  10202 C        1518.0728  -97.6288   28.6971 C.3    1700        0    0.0000
  10203 H        1518.0326  -95.5217   29.2110 H      1700        0    0.0000
  10204 H        1517.9244  -96.5977   30.5998 H      1700        0    0.0000
  10205 H        1517.5736  -98.5565   29.0033 H      1700        0    0.0000
  10206 H        1517.8011  -97.4563   27.6483 H      1700        0    0.0000
  10207 C        1519.6241  -97.8353   28.7900 C.3    1701        0    0.0000
  10208 C        1520.1451  -98.8077   27.7261 C.3    1701        0    0.0000
  10209 H        1520.1173  -96.8613   28.6833 H      1701        0    0.0000
  10210 H        1519.8721  -98.2060   29.7922 H      1701        0    0.0000
  10211 H        1519.6285  -99.7716   27.8120 H      1701        0    0.0000
  10212 H        1519.9259  -98.4209   26.7232 H      1701        0    0.0000
  10213 C        1521.6895  -99.0496   27.8478 C.3    1702        0    0.0000
  10214 C        1522.1903 -100.1120   26.8632 C.3    1702        0    0.0000
  10215 H        1522.2107  -98.1001   27.6741 H      1702        0    0.0000
  10216 H        1521.9199  -99.3519   28.8769 H      1702        0    0.0000
  10217 H        1521.5793 -101.0194   26.9460 H      1702        0    0.0000
  10218 H        1522.0808  -99.7514   25.8329 H      1702        0    0.0000
  10219 C        1523.6918 -100.4895   27.1096 C.3    1703        0    0.0000
  10220 C        1524.3574 -101.0708   25.8574 C.3    1703        0    0.0000
  10221 H        1524.2317  -99.5940   27.4413 H      1703        0    0.0000
  10222 H        1523.7441 -101.2122   27.9334 H      1703        0    0.0000
  10223 H        1523.7324 -101.8670   25.4343 H      1703        0    0.0000
  10224 H        1524.4470 -100.2967   25.0853 H      1703        0    0.0000
  10225 C        1525.7820 -101.6525   26.1577 C.3    1704        0    0.0000
  10226 C        1526.4349 -102.2618   24.9121 C.3    1704        0    0.0000
  10227 H        1526.4137 -100.8506   26.5595 H      1704        0    0.0000
  10228 H        1525.6953 -102.4104   26.9460 H      1704        0    0.0000
  10229 H        1525.7043 -102.8691   24.3633 H      1704        0    0.0000
  10230 H        1526.7592 -101.4662   24.2299 H      1704        0    0.0000
  10231 C        1527.6714 -103.1577   25.2675 C.3    1705        0    0.0000
  10232 C        1528.6635 -103.2661   24.1042 C.3    1705        0    0.0000
  10233 H        1528.1704 -102.7376   26.1495 H      1705        0    0.0000
  10234 H        1527.3149 -104.1553   25.5523 H      1705        0    0.0000
  10235 H        1528.1479 -103.6173   23.2018 H      1705        0    0.0000
  10236 H        1529.0750 -102.2772   23.8673 H      1705        0    0.0000
  10237 C        1529.8475 -104.2430   24.4225 C.3    1706        0    0.0000
  10238 C        1530.8761 -104.2982   23.2875 C.3    1706        0    0.0000
  10239 H        1530.3312 -103.9213   25.3531 H      1706        0    0.0000
  10240 H        1529.4393 -105.2440   24.6093 H      1706        0    0.0000
  10241 H        1530.3645 -104.3283   22.3175 H      1706        0    0.0000
  10242 H        1531.4901 -103.3891   23.2918 H      1706        0    0.0000
  10243 C        1531.8190 -105.5455   23.4004 C.3    1707        0    0.0000
  10244 C        1533.1113 -105.3715   22.5950 C.3    1707        0    0.0000
  10245 H        1532.0551 -105.7158   24.4582 H      1707        0    0.0000
  10246 H        1531.2753 -106.4324   23.0523 H      1707        0    0.0000
  10247 H        1532.8749 -105.1883   21.5395 H      1707        0    0.0000
  10248 H        1533.6615 -104.4920   22.9519 H      1707        0    0.0000
  10249 C        1534.0460 -106.6262   22.6931 C.3    1708        0    0.0000
  10250 C        1535.3809 -106.4141   21.9704 C.3    1708        0    0.0000
  10251 H        1534.2231 -106.8533   23.7516 H      1708        0    0.0000
  10252 H        1533.5219 -107.4916   22.2687 H      1708        0    0.0000
  10253 H        1535.2089 -105.9496   20.9915 H      1708        0    0.0000
  10254 H        1536.0117 -105.7217   22.5412 H      1708        0    0.0000
  10255 C        1536.1636 -107.7563   21.7624 C.3    1709        0    0.0000
  10256 C        1537.6016 -107.5226   21.2862 C.3    1709        0    0.0000
  10257 H        1536.1661 -108.3142   22.7070 H      1709        0    0.0000
  10258 H        1535.6217 -108.3724   21.0342 H      1709        0    0.0000
  10259 H        1537.6012 -106.9139   20.3735 H      1709        0    0.0000
  10260 H        1538.1606 -106.9567   22.0419 H      1709        0    0.0000
  10261 C        1538.3578 -108.8651   20.9982 C.3    1710        0    0.0000
  10262 C        1539.7686 -108.6305   20.4473 C.3    1710        0    0.0000
  10263 H        1538.4084 -109.4485   21.9259 H      1710        0    0.0000
  10264 H        1537.7693 -109.4566   20.2859 H      1710        0    0.0000
  10265 H        1539.7328 -107.9205   19.6117 H      1710        0    0.0000
  10266 H        1540.4032 -108.1773   21.2189 H      1710        0    0.0000
  10267 C        1540.4423 -109.9575   19.9541 C.3    1711        0    0.0000
  10268 C        1541.9652 -109.8279   19.8396 C.3    1711        0    0.0000
  10269 H        1540.1849 -110.7648   20.6509 H      1711        0    0.0000
  10270 H        1540.0139 -110.2316   18.9821 H      1711        0    0.0000
  10271 H        1542.2238 -108.9430   19.2449 H      1711        0    0.0000
  10272 H        1542.4060 -109.6795   20.8333 H      1711        0    0.0000
  10273 C        1542.6208 -111.0895   19.1794 C.3    1712        0    0.0000
  10274 C        1544.1516 -111.0495   19.2437 C.3    1712        0    0.0000
  10275 H        1542.2465 -111.9882   19.6852 H      1712        0    0.0000
  10276 H        1542.2898 -111.1547   18.1354 H      1712        0    0.0000
  10277 H        1544.5304 -110.1986   18.6641 H      1712        0    0.0000
  10278 H        1544.4807 -110.8970   20.2791 H      1712        0    0.0000
  10279 C        1544.8038 -112.3651   18.6948 C.3    1713        0    0.0000
  10280 C        1546.2109 -112.1267   18.1360 C.3    1713        0    0.0000
  10281 H        1544.8408 -113.1056   19.5035 H      1713        0    0.0000
  10282 H        1544.1552 -112.7826   17.9148 H      1713        0    0.0000
  10283 H        1546.2448 -111.1716   17.5973 H      1713        0    0.0000
  10284 H        1546.9341 -112.0505   18.9576 H      1713        0    0.0000
  10285 C        1546.6667 -113.2706   17.1659 C.3    1714        0    0.0000
  10286 C        1548.1882 -113.4560   17.1608 C.3    1714        0    0.0000
  10287 H        1546.1750 -114.2046   17.4648 H      1714        0    0.0000
  10288 H        1546.3127 -113.0379   16.1539 H      1714        0    0.0000
  10289 H        1548.6832 -112.5101   17.4133 H      1714        0    0.0000
  10290 H        1548.4813 -114.1803   17.9308 H      1714        0    0.0000
  10291 C        1548.7218 -113.9508   15.7723 C.3    1715        0    0.0000
  10292 C        1549.9257 -114.8890   15.9134 C.3    1715        0    0.0000
  10293 H        1547.9078 -114.4606   15.2420 H      1715        0    0.0000
  10294 H        1548.9943 -113.0777   15.1666 H      1715        0    0.0000
  10295 H        1549.7251 -115.6450   16.6826 H      1715        0    0.0000
  10296 H        1550.0920 -115.4313   14.9744 H      1715        0    0.0000
  10297 C        1551.2378 -114.1189   16.2915 C.3    1716        0    0.0000
  10298 C        1552.4437 -115.0556   16.4221 C.3    1716        0    0.0000
  10299 H        1551.4338 -113.3575   15.5265 H      1716        0    0.0000
  10300 H        1551.0739 -113.5829   17.2346 H      1716        0    0.0000
  10301 H        1553.0808 -114.7348   17.2557 H      1716        0    0.0000
  10302 H        1552.1064 -116.0728   16.6566 H      1716        0    0.0000
  10303 C        1553.3070 -115.0986   15.1142 C.3    1717        0    0.0000
  10304 C        1554.3439 -116.2272   15.1395 C.3    1717        0    0.0000
  10305 H        1552.6385 -115.2212   14.2531 H      1717        0    0.0000
  10306 H        1553.8077 -114.1305   14.9889 H      1717        0    0.0000
  10307 H        1555.2609 -115.8844   15.6344 H      1717        0    0.0000
  10308 H        1553.9656 -117.0725   15.7274 H      1717        0    0.0000
  10309 C        1554.7053 -116.7341   13.7008 C.3    1718        0    0.0000
  10310 C        1556.0620 -117.4460   13.6594 C.3    1718        0    0.0000
  10311 H        1553.9144 -117.4115   13.3554 H      1718        0    0.0000
  10312 H        1554.7087 -115.8781   13.0148 H      1718        0    0.0000
  10313 H        1556.6219 -117.1370   12.7680 H      1718        0    0.0000
  10314 H        1556.6661 -117.1548   14.5276 H      1718        0    0.0000
  10315 C        1555.9141 -119.0065   13.6475 C.3    1719        0    0.0000
  10316 C        1557.2639 -119.7191   13.7861 C.3    1719        0    0.0000
  10317 H        1555.2457 -119.3045   14.4649 H      1719        0    0.0000
  10318 H        1555.4236 -119.3080   12.7137 H      1719        0    0.0000
  10319 H        1557.6029 -119.6833   14.8288 H      1719        0    0.0000
  10320 H        1557.1580 -120.7795   13.5256 H      1719        0    0.0000
  10321 C        1558.3683 -119.0825   12.8736 C.3    1720        0    0.0000
  10322 C        1559.5601 -120.0228   12.6620 C.3    1720        0    0.0000
  10323 H        1557.9203 -118.8197   11.9071 H      1720        0    0.0000
  10324 H        1558.7061 -118.1437   13.3297 H      1720        0    0.0000
  10325 H        1559.2648 -121.0579   12.8749 H      1720        0    0.0000
  10326 H        1559.8789 -119.9957   11.6127 H      1720        0    0.0000
  10327 C        1560.7810 -119.6485   13.5712 C.3    1721        0    0.0000
  10328 C        1562.0839 -120.2966   13.0898 C.3    1721        0    0.0000
  10329 H        1560.8877 -118.5569   13.5881 H      1721        0    0.0000
  10330 H        1560.5640 -119.9599   14.6005 H      1721        0    0.0000
  10331 H        1562.0044 -120.5565   12.0270 H      1721        0    0.0000
  10332 H        1562.9136 -119.5844   13.1788 H      1721        0    0.0000
  10333 C        1562.4391 -121.5901   13.9012 C.3    1722        0    0.0000
  10334 C        1563.5731 -122.3904   13.2509 C.3    1722        0    0.0000
  10335 H        1562.7195 -121.3015   14.9217 H      1722        0    0.0000
  10336 H        1561.5398 -122.2126   13.9857 H      1722        0    0.0000
  10337 H        1564.0892 -121.7735   12.5050 H      1722        0    0.0000
  10338 H        1564.3209 -122.6641   14.0054 H      1722        0    0.0000
  10339 C        1563.0554 -123.6966   12.5556 C.3    1723        0    0.0000
  10340 C        1563.8987 -124.0775   11.3337 C.3    1723        0    0.0000
  10341 H        1563.0635 -124.5138   13.2875 H      1723        0    0.0000
  10342 H        1562.0095 -123.5489   12.2596 H      1723        0    0.0000
  10343 H        1563.7902 -125.1483   11.1207 H      1723        0    0.0000
  10344 H        1563.5389 -123.5419   10.4466 H      1723        0    0.0000
  10345 C        1565.4191 -123.7543   11.5369 C.3    1724        0    0.0000
  10346 C        1566.2828 -124.2741   10.3823 C.3    1724        0    0.0000
  10347 H        1565.5396 -122.6686   11.6376 H      1724        0    0.0000
  10348 H        1565.7512 -124.1973   12.4841 H      1724        0    0.0000
  10349 H        1565.7482 -125.0623    9.8379 H      1724        0    0.0000
  10350 H        1566.4735 -123.4681    9.6629 H      1724        0    0.0000
  10351 C        1567.6564 -124.8444   10.8778 C.3    1725        0    0.0000
  10352 C        1568.5292 -125.3436    9.7211 C.3    1725        0    0.0000
  10353 H        1568.1838 -124.0611   11.4361 H      1725        0    0.0000
  10354 H        1567.4657 -125.6612   11.5850 H      1725        0    0.0000
  10355 H        1567.9728 -126.0706    9.1165 H      1725        0    0.0000
  10356 H        1568.7847 -124.5099    9.0554 H      1725        0    0.0000
  10357 C        1569.8547 -126.0135   10.2233 C.3    1726        0    0.0000
  10358 C        1570.7350 -126.4983    9.0661 C.3    1726        0    0.0000
  10359 H        1570.4055 -125.2905   10.8376 H      1726        0    0.0000
  10360 H        1569.5991 -126.8545   10.8797 H      1726        0    0.0000
  10361 H        1570.1945 -127.2430    8.4688 H      1726        0    0.0000
  10362 H        1570.9662 -125.6628    8.3938 H      1726        0    0.0000
  10363 C        1572.0791 -127.1310    9.5669 C.3    1727        0    0.0000
  10364 C        1572.9492 -127.6366    8.4110 C.3    1727        0    0.0000
  10365 H        1572.6273 -126.3809   10.1502 H      1727        0    0.0000
  10366 H        1571.8478 -127.9556   10.2525 H      1727        0    0.0000
  10367 H        1572.3396 -128.2164    7.7069 H      1727        0    0.0000
  10368 H        1573.3582 -126.7880    7.8489 H      1727        0    0.0000
  10369 C        1574.1359 -128.5322    8.9083 C.3    1728        0    0.0000
  10370 C        1575.1934 -128.7516    7.8209 C.3    1728        0    0.0000
  10371 H        1574.5922 -128.0590    9.7866 H      1728        0    0.0000
  10372 H        1573.7346 -129.4968    9.2430 H      1728        0    0.0000
  10373 H        1574.7069 -128.9319    6.8542 H      1728        0    0.0000
  10374 H        1575.8043 -127.8482    7.7026 H      1728        0    0.0000
  10375 C        1576.1367 -129.9610    8.1451 C.3    1729        0    0.0000
  10376 C        1577.2205 -130.1545    7.0786 C.3    1729        0    0.0000
  10377 H        1576.5995 -129.7956    9.1259 H      1729        0    0.0000
  10378 H        1575.5288 -130.8700    8.2328 H      1729        0    0.0000
  10379 H        1576.9089 -130.9236    6.3610 H      1729        0    0.0000
  10380 H        1577.3563 -129.2276    6.5079 H      1729        0    0.0000
  10381 C        1578.5978 -130.5714    7.7002 C.3    1730        0    0.0000
  10382 C        1579.6051 -131.0169    6.6344 C.3    1730        0    0.0000
  10383 H        1579.0009 -129.7234    8.2676 H      1730        0    0.0000
  10384 H        1578.4297 -131.3814    8.4208 H      1730        0    0.0000
  10385 H        1580.0405 -131.9854    6.9100 H      1730        0    0.0000
  10386 H        1579.0962 -131.1626    5.6734 H      1730        0    0.0000
  10387 C        1580.7633 -129.9786    6.4407 C.3    1731        0    0.0000
  10388 C        1582.0646 -130.6403    5.9737 C.3    1731        0    0.0000
  10389 H        1580.4430 -129.2233    5.7124 H      1731        0    0.0000
  10390 H        1580.9283 -129.4520    7.3888 H      1731        0    0.0000
  10391 H        1582.9266 -130.0413    6.2925 H      1731        0    0.0000
  10392 H        1582.1749 -131.6258    6.4430 H      1731        0    0.0000
  10393 C        1582.1177 -130.8133    4.4165 C.3    1732        0    0.0000
  10394 C        1583.2526 -131.7435    3.9738 C.3    1732        0    0.0000
  10395 H        1581.1532 -131.2061    4.0713 H      1732        0    0.0000
  10396 H        1582.2390 -129.8256    3.9548 H      1732        0    0.0000
  10397 H        1582.9355 -132.7904    4.0585 H      1732        0    0.0000
  10398 H        1583.4899 -131.5706    2.9167 H      1732        0    0.0000
  10399 C        1584.5538 -131.5394    4.8240 C.3    1733        0    0.0000
  10400 C        1585.5920 -132.6379    4.5696 C.3    1733        0    0.0000
  10401 H        1584.9803 -130.5568    4.5874 H      1733        0    0.0000
  10402 H        1584.2821 -131.5176    5.8866 H      1733        0    0.0000
  10403 H        1586.4707 -132.4799    5.2070 H      1733        0    0.0000
  10404 H        1585.1780 -133.6170    4.8409 H      1733        0    0.0000
  10405 C        1586.0549 -132.6824    3.0726 C.3    1734        0    0.0000
  10406 C        1587.0573 -133.8114    2.8078 C.3    1734        0    0.0000
  10407 H        1585.1724 -132.8054    2.4328 H      1734        0    0.0000
  10408 H        1586.5009 -131.7146    2.8114 H      1734        0    0.0000
  10409 H        1586.8364 -134.6697    3.4543 H      1734        0    0.0000
  10410 H        1586.9623 -134.1636    1.7731 H      1734        0    0.0000
  10411 C        1588.5383 -133.3609    3.0543 C.3    1735        0    0.0000
  10412 C        1589.5503 -134.4215    2.6067 C.3    1735        0    0.0000
  10413 H        1588.7162 -132.4210    2.5173 H      1735        0    0.0000
  10414 H        1588.6687 -133.1435    4.1217 H      1735        0    0.0000
  10415 H        1589.0500 -135.1862    1.9996 H      1735        0    0.0000
  10416 H        1590.3167 -133.9645    1.9686 H      1735        0    0.0000
  10417 C        1590.2543 -135.1206    3.8202 C.3    1736        0    0.0000
  10418 C        1591.5117 -135.8889    3.3984 C.3    1736        0    0.0000
  10419 H        1590.5116 -134.3590    4.5666 H      1736        0    0.0000
  10420 H        1589.5400 -135.8021    4.2988 H      1736        0    0.0000
  10421 H        1591.8961 -135.4902    2.4514 H      1736        0    0.0000
  10422 H        1592.3048 -135.7505    4.1435 H      1736        0    0.0000
  10423 C        1591.2410 -137.4236    3.2277 C.3    1737        0    0.0000
  10424 C        1592.3497 -138.1243    2.4346 C.3    1737        0    0.0000
  10425 H        1591.1445 -137.8783    4.2214 H      1737        0    0.0000
  10426 H        1590.2756 -137.5585    2.7244 H      1737        0    0.0000
  10427 H        1592.5223 -139.1300    2.8375 H      1737        0    0.0000
  10428 H        1592.0415 -138.2522    1.3896 H      1737        0    0.0000
  10429 C        1593.6993 -137.3275    2.4695 C.3    1738        0    0.0000
  10430 C        1594.8057 -138.0234    1.6690 C.3    1738        0    0.0000
  10431 H        1593.5253 -136.3195    2.0728 H      1738        0    0.0000
  10432 H        1594.0110 -137.2054    3.5142 H      1738        0    0.0000
  10433 H        1594.6534 -139.1098    1.6829 H      1738        0    0.0000
  10434 H        1594.7617 -137.7126    0.6178 H      1738        0    0.0000
  10435 C        1596.2346 -137.7062    2.2304 C.3    1739        0    0.0000
  10436 C        1597.3253 -138.5367    1.5452 C.3    1739        0    0.0000
  10437 H        1596.4371 -136.6363    2.0975 H      1739        0    0.0000
  10438 H        1596.2402 -137.8961    3.3109 H      1739        0    0.0000
  10439 H        1598.0015 -138.9630    2.2967 H      1739        0    0.0000
  10440 H        1596.8748 -139.3823    1.0110 H      1739        0    0.0000
  10441 C        1598.1678 -137.6892    0.5304 C.3    1740        0    0.0000
  10442 C        1599.0360 -138.5664   -0.3784 C.3    1740        0    0.0000
  10443 H        1597.4846 -137.0809   -0.0750 H      1740        0    0.0000
  10444 H        1598.7988 -136.9897    1.0924 H      1740        0    0.0000
  10445 H        1598.5780 -138.6476   -1.3719 H      1740        0    0.0000
  10446 H        1600.0194 -138.1018   -0.5219 H      1740        0    0.0000
  10447 C        1599.2383 -140.0076    0.2041 C.3    1741        0    0.0000
  10448 C        1600.0610 -140.9016   -0.7302 C.3    1741        0    0.0000
  10449 H        1599.7323 -139.9283    1.1804 H      1741        0    0.0000
  10450 H        1598.2540 -140.4574    0.3848 H      1741        0    0.0000
  10451 H        1599.5669 -140.9809   -1.7064 H      1741        0    0.0000
  10452 H        1601.0453 -140.4520   -0.9109 H      1741        0    0.0000
  10453 H        1600.2017 -141.9037   -0.3251 H      1741        0    0.0000
  10454 H          -1.7755    1.2579    0.3836 H         0        0    0.0000
@<TRIPOS>BOND
     1     1     2      1
     2     1     3      1
     3     1     4      1
     4     1 10454      H
     5     2     5      1
     6     2     6      1
     7     2     7      1
     8     7     8      1
     9     7     9      1
    10     7    10      1
    11     8    11      1
    12     8    12      1
    13     8    13      1
    14    13    14      1
    15    13    15      1
    16    13    16      1
    17    14    17      1
    18    14    18      1
    19    14    19      1
    20    19    20      1
    21    19    21      1
    22    19    22      1
    23    20    23      1
    24    20    24      1
    25    20    25      1
    26    25    26      1
    27    25    27      1
    28    25    28      1
    29    26    29      1
    30    26    30      1
    31    26    31      1
    32    31    32      1
    33    31    33      1
    34    31    34      1
    35    32    35      1
    36    32    36      1
    37    32    37      1
    38    37    38      1
    39    37    39      1
    40    37    40      1
    41    38    41      1
    42    38    42      1
    43    38    43      1
    44    43    44      1
    45    43    45      1
    46    43    46      1
    47    44    47      1
    48    44    48      1
    49    44    49      1
    50    49    50      1
    51    49    51      1
    52    49    52      1
    53    50    53      1
    54    50    54      1
    55    50    55      1
    56    55    56      1
    57    55    57      1
    58    55    58      1
    59    56    59      1
    60    56    60      1
    61    56    61      1
    62    61    62      1
    63    61    63      1
    64    61    64      1
    65    62    65      1
    66    62    66      1
    67    62    67      1
    68    67    68      1
    69    67    69      1
    70    67    70      1
    71    68    71      1
    72    68    72      1
    73    68    73      1
    74    73    74      1
    75    73    75      1
    76    73    76      1
    77    74    77      1
    78    74    78      1
    79    74    79      1
    80    79    80      1
    81    79    81      1
    82    79    82      1
    83    80    83      1
    84    80    84      1
    85    80    85      1
    86    85    86      1
    87    85    87      1
    88    85    88      1
    89    86    89      1
    90    86    90      1
    91    86    91      1
    92    91    92      1
    93    91    93      1
    94    91    94      1
    95    92    95      1
    96    92    96      1
    97    92    97      1
    98    97    98      1
    99    97    99      1
   100    97   100      1
   101    98   101      1
   102    98   102      1
   103    98   103      1
   104   103   104      1
   105   103   105      1
   106   103   106      1
   107   104   107      1
   108   104   108      1
   109   104   109      1
   110   109   110      1
   111   109   111      1
   112   109   112      1
   113   110   113      1
   114   110   114      1
   115   110   115      1
   116   115   116      1
   117   115   117      1
   118   115   118      1
   119   116   119      1
   120   116   120      1
   121   116   121      1
   122   121   122      1
   123   121   123      1
   124   121   124      1
   125   122   125      1
   126   122   126      1
   127   122   127      1
   128   127   128      1
   129   127   129      1
   130   127   130      1
   131   128   131      1
   132   128   132      1
   133   128   133      1
   134   133   134      1
   135   133   135      1
   136   133   136      1
   137   134   137      1
   138   134   138      1
   139   134   139      1
   140   139   140      1
   141   139   141      1
   142   139   142      1
   143   140   143      1
   144   140   144      1
   145   140   145      1
   146   145   146      1
   147   145   147      1
   148   145   148      1
   149   146   149      1
   150   146   150      1
   151   146   151      1
   152   151   152      1
   153   151   153      1
   154   151   154      1
   155   152   155      1
   156   152   156      1
   157   152   157      1
   158   157   158      1
   159   157   159      1
   160   157   160      1
   161   158   161      1
   162   158   162      1
   163   158   163      1
   164   163   164      1
   165   163   165      1
   166   163   166      1
   167   164   167      1
   168   164   168      1
   169   164   169      1
   170   169   170      1
   171   169   171      1
   172   169   172      1
   173   170   173      1
   174   170   174      1
   175   170   175      1
   176   175   176      1
   177   175   177      1
   178   175   178      1
   179   176   179      1
   180   176   180      1
   181   176   181      1
   182   181   182      1
   183   181   183      1
   184   181   184      1
   185   182   185      1
   186   182   186      1
   187   182   187      1
   188   187   188      1
   189   187   189      1
   190   187   190      1
   191   188   191      1
   192   188   192      1
   193   188   193      1
   194   193   194      1
   195   193   195      1
   196   193   196      1
   197   194   197      1
   198   194   198      1
   199   194   199      1
   200   199   200      1
   201   199   201      1
   202   199   202      1
   203   200   203      1
   204   200   204      1
   205   200   205      1
   206   205   206      1
   207   205   207      1
   208   205   208      1
   209   206   209      1
   210   206   210      1
   211   206   211      1
   212   211   212      1
   213   211   213      1
   214   211   214      1
   215   212   215      1
   216   212   216      1
   217   212   217      1
   218   217   218      1
   219   217   219      1
   220   217   220      1
   221   218   221      1
   222   218   222      1
   223   218   223      1
   224   223   224      1
   225   223   225      1
   226   223   226      1
   227   224   227      1
   228   224   228      1
   229   224   229      1
   230   229   230      1
   231   229   231      1
   232   229   232      1
   233   230   233      1
   234   230   234      1
   235   230   235      1
   236   235   236      1
   237   235   237      1
   238   235   238      1
   239   236   239      1
   240   236   240      1
   241   236   241      1
   242   241   242      1
   243   241   243      1
   244   241   244      1
   245   242   245      1
   246   242   246      1
   247   242   247      1
   248   247   248      1
   249   247   249      1
   250   247   250      1
   251   248   251      1
   252   248   252      1
   253   248   253      1
   254   253   254      1
   255   253   255      1
   256   253   256      1
   257   254   257      1
   258   254   258      1
   259   254   259      1
   260   259   260      1
   261   259   261      1
   262   259   262      1
   263   260   263      1
   264   260   264      1
   265   260   265      1
   266   265   266      1
   267   265   267      1
   268   265   268      1
   269   266   269      1
   270   266   270      1
   271   266   271      1
   272   271   272      1
   273   271   273      1
   274   271   274      1
   275   272   275      1
   276   272   276      1
   277   272   277      1
   278   277   278      1
   279   277   279      1
   280   277   280      1
   281   278   281      1
   282   278   282      1
   283   278   283      1
   284   283   284      1
   285   283   285      1
   286   283   286      1
   287   284   287      1
   288   284   288      1
   289   284   289      1
   290   289   290      1
   291   289   291      1
   292   289   292      1
   293   290   293      1
   294   290   294      1
   295   290   295      1
   296   295   296      1
   297   295   297      1
   298   295   298      1
   299   296   299      1
   300   296   300      1
   301   296   301      1
   302   301   302      1
   303   301   303      1
   304   301   304      1
   305   302   305      1
   306   302   306      1
   307   302   307      1
   308   307   308      1
   309   307   309      1
   310   307   310      1
   311   308   311      1
   312   308   312      1
   313   308   313      1
   314   313   314      1
   315   313   315      1
   316   313   316      1
   317   314   317      1
   318   314   318      1
   319   314   319      1
   320   319   320      1
   321   319   321      1
   322   319   322      1
   323   320   323      1
   324   320   324      1
   325   320   325      1
   326   325   326      1
   327   325   327      1
   328   325   328      1
   329   326   329      1
   330   326   330      1
   331   326   331      1
   332   331   332      1
   333   331   333      1
   334   331   334      1
   335   332   335      1
   336   332   336      1
   337   332   337      1
   338   337   338      1
   339   337   339      1
   340   337   340      1
   341   338   341      1
   342   338   342      1
   343   338   343      1
   344   343   344      1
   345   343   345      1
   346   343   346      1
   347   344   347      1
   348   344   348      1
   349   344   349      1
   350   349   350      1
   351   349   351      1
   352   349   352      1
   353   350   353      1
   354   350   354      1
   355   350   355      1
   356   355   356      1
   357   355   357      1
   358   355   358      1
   359   356   359      1
   360   356   360      1
   361   356   361      1
   362   361   362      1
   363   361   363      1
   364   361   364      1
   365   362   365      1
   366   362   366      1
   367   362   367      1
   368   367   368      1
   369   367   369      1
   370   367   370      1
   371   368   371      1
   372   368   372      1
   373   368   373      1
   374   373   374      1
   375   373   375      1
   376   373   376      1
   377   374   377      1
   378   374   378      1
   379   374   379      1
   380   379   380      1
   381   379   381      1
   382   379   382      1
   383   380   383      1
   384   380   384      1
   385   380   385      1
   386   385   386      1
   387   385   387      1
   388   385   388      1
   389   386   389      1
   390   386   390      1
   391   386   391      1
   392   391   392      1
   393   391   393      1
   394   391   394      1
   395   392   395      1
   396   392   396      1
   397   392   397      1
   398   397   398      1
   399   397   399      1
   400   397   400      1
   401   398   401      1
   402   398   402      1
   403   398   403      1
   404   403   404      1
   405   403   405      1
   406   403   406      1
   407   404   407      1
   408   404   408      1
   409   404   409      1
   410   409   410      1
   411   409   411      1
   412   409   412      1
   413   410   413      1
   414   410   414      1
   415   410   415      1
   416   415   416      1
   417   415   417      1
   418   415   418      1
   419   416   419      1
   420   416   420      1
   421   416   421      1
   422   421   422      1
   423   421   423      1
   424   421   424      1
   425   422   425      1
   426   422   426      1
   427   422   427      1
   428   427   428      1
   429   427   429      1
   430   427   430      1
   431   428   431      1
   432   428   432      1
   433   428   433      1
   434   433   434      1
   435   433   435      1
   436   433   436      1
   437   434   437      1
   438   434   438      1
   439   434   439      1
   440   439   440      1
   441   439   441      1
   442   439   442      1
   443   440   443      1
   444   440   444      1
   445   440   445      1
   446   445   446      1
   447   445   447      1
   448   445   448      1
   449   446   449      1
   450   446   450      1
   451   446   451      1
   452   451   452      1
   453   451   453      1
   454   451   454      1
   455   452   455      1
   456   452   456      1
   457   452   457      1
   458   457   458      1
   459   457   459      1
   460   457   460      1
   461   458   461      1
   462   458   462      1
   463   458   463      1
   464   463   464      1
   465   463   465      1
   466   463   466      1
   467   464   467      1
   468   464   468      1
   469   464   469      1
   470   469   470      1
   471   469   471      1
   472   469   472      1
   473   470   473      1
   474   470   474      1
   475   470   475      1
   476   475   476      1
   477   475   477      1
   478   475   478      1
   479   476   479      1
   480   476   480      1
   481   476   481      1
   482   481   482      1
   483   481   483      1
   484   481   484      1
   485   482   485      1
   486   482   486      1
   487   482   487      1
   488   487   488      1
   489   487   489      1
   490   487   490      1
   491   488   491      1
   492   488   492      1
   493   488   493      1
   494   493   494      1
   495   493   495      1
   496   493   496      1
   497   494   497      1
   498   494   498      1
   499   494   499      1
   500   499   500      1
   501   499   501      1
   502   499   502      1
   503   500   503      1
   504   500   504      1
   505   500   505      1
   506   505   506      1
   507   505   507      1
   508   505   508      1
   509   506   509      1
   510   506   510      1
   511   506   511      1
   512   511   512      1
   513   511   513      1
   514   511   514      1
   515   512   515      1
   516   512   516      1
   517   512   517      1
   518   517   518      1
   519   517   519      1
   520   517   520      1
   521   518   521      1
   522   518   522      1
   523   518   523      1
   524   523   524      1
   525   523   525      1
   526   523   526      1
   527   524   527      1
   528   524   528      1
   529   524   529      1
   530   529   530      1
   531   529   531      1
   532   529   532      1
   533   530   533      1
   534   530   534      1
   535   530   535      1
   536   535   536      1
   537   535   537      1
   538   535   538      1
   539   536   539      1
   540   536   540      1
   541   536   541      1
   542   541   542      1
   543   541   543      1
   544   541   544      1
   545   542   545      1
   546   542   546      1
   547   542   547      1
   548   547   548      1
   549   547   549      1
   550   547   550      1
   551   548   551      1
   552   548   552      1
   553   548   553      1
   554   553   554      1
   555   553   555      1
   556   553   556      1
   557   554   557      1
   558   554   558      1
   559   554   559      1
   560   559   560      1
   561   559   561      1
   562   559   562      1
   563   560   563      1
   564   560   564      1
   565   560   565      1
   566   565   566      1
   567   565   567      1
   568   565   568      1
   569   566   569      1
   570   566   570      1
   571   566   571      1
   572   571   572      1
   573   571   573      1
   574   571   574      1
   575   572   575      1
   576   572   576      1
   577   572   577      1
   578   577   578      1
   579   577   579      1
   580   577   580      1
   581   578   581      1
   582   578   582      1
   583   578   583      1
   584   583   584      1
   585   583   585      1
   586   583   586      1
   587   584   587      1
   588   584   588      1
   589   584   589      1
   590   589   590      1
   591   589   591      1
   592   589   592      1
   593   590   593      1
   594   590   594      1
   595   590   595      1
   596   595   596      1
   597   595   597      1
   598   595   598      1
   599   596   599      1
   600   596   600      1
   601   596   601      1
   602   601   602      1
   603   601   603      1
   604   601   604      1
   605   602   605      1
   606   602   606      1
   607   602   607      1
   608   607   608      1
   609   607   609      1
   610   607   610      1
   611   608   611      1
   612   608   612      1
   613   608   613      1
   614   613   614      1
   615   613   615      1
   616   613   616      1
   617   614   617      1
   618   614   618      1
   619   614   619      1
   620   619   620      1
   621   619   621      1
   622   619   622      1
   623   620   623      1
   624   620   624      1
   625   620   625      1
   626   625   626      1
   627   625   627      1
   628   625   628      1
   629   626   629      1
   630   626   630      1
   631   626   631      1
   632   631   632      1
   633   631   633      1
   634   631   634      1
   635   632   635      1
   636   632   636      1
   637   632   637      1
   638   637   638      1
   639   637   639      1
   640   637   640      1
   641   638   641      1
   642   638   642      1
   643   638   643      1
   644   643   644      1
   645   643   645      1
   646   643   646      1
   647   644   647      1
   648   644   648      1
   649   644   649      1
   650   649   650      1
   651   649   651      1
   652   649   652      1
   653   650   653      1
   654   650   654      1
   655   650   655      1
   656   655   656      1
   657   655   657      1
   658   655   658      1
   659   656   659      1
   660   656   660      1
   661   656   661      1
   662   661   662      1
   663   661   663      1
   664   661   664      1
   665   662   665      1
   666   662   666      1
   667   662   667      1
   668   667   668      1
   669   667   669      1
   670   667   670      1
   671   668   671      1
   672   668   672      1
   673   668   673      1
   674   673   674      1
   675   673   675      1
   676   673   676      1
   677   674   677      1
   678   674   678      1
   679   674   679      1
   680   679   680      1
   681   679   681      1
   682   679   682      1
   683   680   683      1
   684   680   684      1
   685   680   685      1
   686   685   686      1
   687   685   687      1
   688   685   688      1
   689   686   689      1
   690   686   690      1
   691   686   691      1
   692   691   692      1
   693   691   693      1
   694   691   694      1
   695   692   695      1
   696   692   696      1
   697   692   697      1
   698   697   698      1
   699   697   699      1
   700   697   700      1
   701   698   701      1
   702   698   702      1
   703   698   703      1
   704   703   704      1
   705   703   705      1
   706   703   706      1
   707   704   707      1
   708   704   708      1
   709   704   709      1
   710   709   710      1
   711   709   711      1
   712   709   712      1
   713   710   713      1
   714   710   714      1
   715   710   715      1
   716   715   716      1
   717   715   717      1
   718   715   718      1
   719   716   719      1
   720   716   720      1
   721   716   721      1
   722   721   722      1
   723   721   723      1
   724   721   724      1
   725   722   725      1
   726   722   726      1
   727   722   727      1
   728   727   728      1
   729   727   729      1
   730   727   730      1
   731   728   731      1
   732   728   732      1
   733   728   733      1
   734   733   734      1
   735   733   735      1
   736   733   736      1
   737   734   737      1
   738   734   738      1
   739   734   739      1
   740   739   740      1
   741   739   741      1
   742   739   742      1
   743   740   743      1
   744   740   744      1
   745   740   745      1
   746   745   746      1
   747   745   747      1
   748   745   748      1
   749   746   749      1
   750   746   750      1
   751   746   751      1
   752   751   752      1
   753   751   753      1
   754   751   754      1
   755   752   755      1
   756   752   756      1
   757   752   757      1
   758   757   758      1
   759   757   759      1
   760   757   760      1
   761   758   761      1
   762   758   762      1
   763   758   763      1
   764   763   764      1
   765   763   765      1
   766   763   766      1
   767   764   767      1
   768   764   768      1
   769   764   769      1
   770   769   770      1
   771   769   771      1
   772   769   772      1
   773   770   773      1
   774   770   774      1
   775   770   775      1
   776   775   776      1
   777   775   777      1
   778   775   778      1
   779   776   779      1
   780   776   780      1
   781   776   781      1
   782   781   782      1
   783   781   783      1
   784   781   784      1
   785   782   785      1
   786   782   786      1
   787   782   787      1
   788   787   788      1
   789   787   789      1
   790   787   790      1
   791   788   791      1
   792   788   792      1
   793   788   793      1
   794   793   794      1
   795   793   795      1
   796   793   796      1
   797   794   797      1
   798   794   798      1
   799   794   799      1
   800   799   800      1
   801   799   801      1
   802   799   802      1
   803   800   803      1
   804   800   804      1
   805   800   805      1
   806   805   806      1
   807   805   807      1
   808   805   808      1
   809   806   809      1
   810   806   810      1
   811   806   811      1
   812   811   812      1
   813   811   813      1
   814   811   814      1
   815   812   815      1
   816   812   816      1
   817   812   817      1
   818   817   818      1
   819   817   819      1
   820   817   820      1
   821   818   821      1
   822   818   822      1
   823   818   823      1
   824   823   824      1
   825   823   825      1
   826   823   826      1
   827   824   827      1
   828   824   828      1
   829   824   829      1
   830   829   830      1
   831   829   831      1
   832   829   832      1
   833   830   833      1
   834   830   834      1
   835   830   835      1
   836   835   836      1
   837   835   837      1
   838   835   838      1
   839   836   839      1
   840   836   840      1
   841   836   841      1
   842   841   842      1
   843   841   843      1
   844   841   844      1
   845   842   845      1
   846   842   846      1
   847   842   847      1
   848   847   848      1
   849   847   849      1
   850   847   850      1
   851   848   851      1
   852   848   852      1
   853   848   853      1
   854   853   854      1
   855   853   855      1
   856   853   856      1
   857   854   857      1
   858   854   858      1
   859   854   859      1
   860   859   860      1
   861   859   861      1
   862   859   862      1
   863   860   863      1
   864   860   864      1
   865   860   865      1
   866   865   866      1
   867   865   867      1
   868   865   868      1
   869   866   869      1
   870   866   870      1
   871   866   871      1
   872   871   872      1
   873   871   873      1
   874   871   874      1
   875   872   875      1
   876   872   876      1
   877   872   877      1
   878   877   878      1
   879   877   879      1
   880   877   880      1
   881   878   881      1
   882   878   882      1
   883   878   883      1
   884   883   884      1
   885   883   885      1
   886   883   886      1
   887   884   887      1
   888   884   888      1
   889   884   889      1
   890   889   890      1
   891   889   891      1
   892   889   892      1
   893   890   893      1
   894   890   894      1
   895   890   895      1
   896   895   896      1
   897   895   897      1
   898   895   898      1
   899   896   899      1
   900   896   900      1
   901   896   901      1
   902   901   902      1
   903   901   903      1
   904   901   904      1
   905   902   905      1
   906   902   906      1
   907   902   907      1
   908   907   908      1
   909   907   909      1
   910   907   910      1
   911   908   911      1
   912   908   912      1
   913   908   913      1
   914   913   914      1
   915   913   915      1
   916   913   916      1
   917   914   917      1
   918   914   918      1
   919   914   919      1
   920   919   920      1
   921   919   921      1
   922   919   922      1
   923   920   923      1
   924   920   924      1
   925   920   925      1
   926   925   926      1
   927   925   927      1
   928   925   928      1
   929   926   929      1
   930   926   930      1
   931   926   931      1
   932   931   932      1
   933   931   933      1
   934   931   934      1
   935   932   935      1
   936   932   936      1
   937   932   937      1
   938   937   938      1
   939   937   939      1
   940   937   940      1
   941   938   941      1
   942   938   942      1
   943   938   943      1
   944   943   944      1
   945   943   945      1
   946   943   946      1
   947   944   947      1
   948   944   948      1
   949   944   949      1
   950   949   950      1
   951   949   951      1
   952   949   952      1
   953   950   953      1
   954   950   954      1
   955   950   955      1
   956   955   956      1
   957   955   957      1
   958   955   958      1
   959   956   959      1
   960   956   960      1
   961   956   961      1
   962   961   962      1
   963   961   963      1
   964   961   964      1
   965   962   965      1
   966   962   966      1
   967   962   967      1
   968   967   968      1
   969   967   969      1
   970   967   970      1
   971   968   971      1
   972   968   972      1
   973   968   973      1
   974   973   974      1
   975   973   975      1
   976   973   976      1
   977   974   977      1
   978   974   978      1
   979   974   979      1
   980   979   980      1
   981   979   981      1
   982   979   982      1
   983   980   983      1
   984   980   984      1
   985   980   985      1
   986   985   986      1
   987   985   987      1
   988   985   988      1
   989   986   989      1
   990   986   990      1
   991   986   991      1
   992   991   992      1
   993   991   993      1
   994   991   994      1
   995   992   995      1
   996   992   996      1
   997   992   997      1
   998   997   998      1
   999   997   999      1
  1000   997  1000      1
  1001   998  1001      1
  1002   998  1002      1
  1003   998  1003      1
  1004  1003  1004      1
  1005  1003  1005      1
  1006  1003  1006      1
  1007  1004  1007      1
  1008  1004  1008      1
  1009  1004  1009      1
  1010  1009  1010      1
  1011  1009  1011      1
  1012  1009  1012      1
  1013  1010  1013      1
  1014  1010  1014      1
  1015  1010  1015      1
  1016  1015  1016      1
  1017  1015  1017      1
  1018  1015  1018      1
  1019  1016  1019      1
  1020  1016  1020      1
  1021  1016  1021      1
  1022  1021  1022      1
  1023  1021  1023      1
  1024  1021  1024      1
  1025  1022  1025      1
  1026  1022  1026      1
  1027  1022  1027      1
  1028  1027  1028      1
  1029  1027  1029      1
  1030  1027  1030      1
  1031  1028  1031      1
  1032  1028  1032      1
  1033  1028  1033      1
  1034  1033  1034      1
  1035  1033  1035      1
  1036  1033  1036      1
  1037  1034  1037      1
  1038  1034  1038      1
  1039  1034  1039      1
  1040  1039  1040      1
  1041  1039  1041      1
  1042  1039  1042      1
  1043  1040  1043      1
  1044  1040  1044      1
  1045  1040  1045      1
  1046  1045  1046      1
  1047  1045  1047      1
  1048  1045  1048      1
  1049  1046  1049      1
  1050  1046  1050      1
  1051  1046  1051      1
  1052  1051  1052      1
  1053  1051  1053      1
  1054  1051  1054      1
  1055  1052  1055      1
  1056  1052  1056      1
  1057  1052  1057      1
  1058  1057  1058      1
  1059  1057  1059      1
  1060  1057  1060      1
  1061  1058  1061      1
  1062  1058  1062      1
  1063  1058  1063      1
  1064  1063  1064      1
  1065  1063  1065      1
  1066  1063  1066      1
  1067  1064  1067      1
  1068  1064  1068      1
  1069  1064  1069      1
  1070  1069  1070      1
  1071  1069  1071      1
  1072  1069  1072      1
  1073  1070  1073      1
  1074  1070  1074      1
  1075  1070  1075      1
  1076  1075  1076      1
  1077  1075  1077      1
  1078  1075  1078      1
  1079  1076  1079      1
  1080  1076  1080      1
  1081  1076  1081      1
  1082  1081  1082      1
  1083  1081  1083      1
  1084  1081  1084      1
  1085  1082  1085      1
  1086  1082  1086      1
  1087  1082  1087      1
  1088  1087  1088      1
  1089  1087  1089      1
  1090  1087  1090      1
  1091  1088  1091      1
  1092  1088  1092      1
  1093  1088  1093      1
  1094  1093  1094      1
  1095  1093  1095      1
  1096  1093  1096      1
  1097  1094  1097      1
  1098  1094  1098      1
  1099  1094  1099      1
  1100  1099  1100      1
  1101  1099  1101      1
  1102  1099  1102      1
  1103  1100  1103      1
  1104  1100  1104      1
  1105  1100  1105      1
  1106  1105  1106      1
  1107  1105  1107      1
  1108  1105  1108      1
  1109  1106  1109      1
  1110  1106  1110      1
  1111  1106  1111      1
  1112  1111  1112      1
  1113  1111  1113      1
  1114  1111  1114      1
  1115  1112  1115      1
  1116  1112  1116      1
  1117  1112  1117      1
  1118  1117  1118      1
  1119  1117  1119      1
  1120  1117  1120      1
  1121  1118  1121      1
  1122  1118  1122      1
  1123  1118  1123      1
  1124  1123  1124      1
  1125  1123  1125      1
  1126  1123  1126      1
  1127  1124  1127      1
  1128  1124  1128      1
  1129  1124  1129      1
  1130  1129  1130      1
  1131  1129  1131      1
  1132  1129  1132      1
  1133  1130  1133      1
  1134  1130  1134      1
  1135  1130  1135      1
  1136  1135  1136      1
  1137  1135  1137      1
  1138  1135  1138      1
  1139  1136  1139      1
  1140  1136  1140      1
  1141  1136  1141      1
  1142  1141  1142      1
  1143  1141  1143      1
  1144  1141  1144      1
  1145  1142  1145      1
  1146  1142  1146      1
  1147  1142  1147      1
  1148  1147  1148      1
  1149  1147  1149      1
  1150  1147  1150      1
  1151  1148  1151      1
  1152  1148  1152      1
  1153  1148  1153      1
  1154  1153  1154      1
  1155  1153  1155      1
  1156  1153  1156      1
  1157  1154  1157      1
  1158  1154  1158      1
  1159  1154  1159      1
  1160  1159  1160      1
  1161  1159  1161      1
  1162  1159  1162      1
  1163  1160  1163      1
  1164  1160  1164      1
  1165  1160  1165      1
  1166  1165  1166      1
  1167  1165  1167      1
  1168  1165  1168      1
  1169  1166  1169      1
  1170  1166  1170      1
  1171  1166  1171      1
  1172  1171  1172      1
  1173  1171  1173      1
  1174  1171  1174      1
  1175  1172  1175      1
  1176  1172  1176      1
  1177  1172  1177      1
  1178  1177  1178      1
  1179  1177  1179      1
  1180  1177  1180      1
  1181  1178  1181      1
  1182  1178  1182      1
  1183  1178  1183      1
  1184  1183  1184      1
  1185  1183  1185      1
  1186  1183  1186      1
  1187  1184  1187      1
  1188  1184  1188      1
  1189  1184  1189      1
  1190  1189  1190      1
  1191  1189  1191      1
  1192  1189  1192      1
  1193  1190  1193      1
  1194  1190  1194      1
  1195  1190  1195      1
  1196  1195  1196      1
  1197  1195  1197      1
  1198  1195  1198      1
  1199  1196  1199      1
  1200  1196  1200      1
  1201  1196  1201      1
  1202  1201  1202      1
  1203  1201  1203      1
  1204  1201  1204      1
  1205  1202  1205      1
  1206  1202  1206      1
  1207  1202  1207      1
  1208  1207  1208      1
  1209  1207  1209      1
  1210  1207  1210      1
  1211  1208  1211      1
  1212  1208  1212      1
  1213  1208  1213      1
  1214  1213  1214      1
  1215  1213  1215      1
  1216  1213  1216      1
  1217  1214  1217      1
  1218  1214  1218      1
  1219  1214  1219      1
  1220  1219  1220      1
  1221  1219  1221      1
  1222  1219  1222      1
  1223  1220  1223      1
  1224  1220  1224      1
  1225  1220  1225      1
  1226  1225  1226      1
  1227  1225  1227      1
  1228  1225  1228      1
  1229  1226  1229      1
  1230  1226  1230      1
  1231  1226  1231      1
  1232  1231  1232      1
  1233  1231  1233      1
  1234  1231  1234      1
  1235  1232  1235      1
  1236  1232  1236      1
  1237  1232  1237      1
  1238  1237  1238      1
  1239  1237  1239      1
  1240  1237  1240      1
  1241  1238  1241      1
  1242  1238  1242      1
  1243  1238  1243      1
  1244  1243  1244      1
  1245  1243  1245      1
  1246  1243  1246      1
  1247  1244  1247      1
  1248  1244  1248      1
  1249  1244  1249      1
  1250  1249  1250      1
  1251  1249  1251      1
  1252  1249  1252      1
  1253  1250  1253      1
  1254  1250  1254      1
  1255  1250  1255      1
  1256  1255  1256      1
  1257  1255  1257      1
  1258  1255  1258      1
  1259  1256  1259      1
  1260  1256  1260      1
  1261  1256  1261      1
  1262  1261  1262      1
  1263  1261  1263      1
  1264  1261  1264      1
  1265  1262  1265      1
  1266  1262  1266      1
  1267  1262  1267      1
  1268  1267  1268      1
  1269  1267  1269      1
  1270  1267  1270      1
  1271  1268  1271      1
  1272  1268  1272      1
  1273  1268  1273      1
  1274  1273  1274      1
  1275  1273  1275      1
  1276  1273  1276      1
  1277  1274  1277      1
  1278  1274  1278      1
  1279  1274  1279      1
  1280  1279  1280      1
  1281  1279  1281      1
  1282  1279  1282      1
  1283  1280  1283      1
  1284  1280  1284      1
  1285  1280  1285      1
  1286  1285  1286      1
  1287  1285  1287      1
  1288  1285  1288      1
  1289  1286  1289      1
  1290  1286  1290      1
  1291  1286  1291      1
  1292  1291  1292      1
  1293  1291  1293      1
  1294  1291  1294      1
  1295  1292  1295      1
  1296  1292  1296      1
  1297  1292  1297      1
  1298  1297  1298      1
  1299  1297  1299      1
  1300  1297  1300      1
  1301  1298  1301      1
  1302  1298  1302      1
  1303  1298  1303      1
  1304  1303  1304      1
  1305  1303  1305      1
  1306  1303  1306      1
  1307  1304  1307      1
  1308  1304  1308      1
  1309  1304  1309      1
  1310  1309  1310      1
  1311  1309  1311      1
  1312  1309  1312      1
  1313  1310  1313      1
  1314  1310  1314      1
  1315  1310  1315      1
  1316  1315  1316      1
  1317  1315  1317      1
  1318  1315  1318      1
  1319  1316  1319      1
  1320  1316  1320      1
  1321  1316  1321      1
  1322  1321  1322      1
  1323  1321  1323      1
  1324  1321  1324      1
  1325  1322  1325      1
  1326  1322  1326      1
  1327  1322  1327      1
  1328  1327  1328      1
  1329  1327  1329      1
  1330  1327  1330      1
  1331  1328  1331      1
  1332  1328  1332      1
  1333  1328  1333      1
  1334  1333  1334      1
  1335  1333  1335      1
  1336  1333  1336      1
  1337  1334  1337      1
  1338  1334  1338      1
  1339  1334  1339      1
  1340  1339  1340      1
  1341  1339  1341      1
  1342  1339  1342      1
  1343  1340  1343      1
  1344  1340  1344      1
  1345  1340  1345      1
  1346  1345  1346      1
  1347  1345  1347      1
  1348  1345  1348      1
  1349  1346  1349      1
  1350  1346  1350      1
  1351  1346  1351      1
  1352  1351  1352      1
  1353  1351  1353      1
  1354  1351  1354      1
  1355  1352  1355      1
  1356  1352  1356      1
  1357  1352  1357      1
  1358  1357  1358      1
  1359  1357  1359      1
  1360  1357  1360      1
  1361  1358  1361      1
  1362  1358  1362      1
  1363  1358  1363      1
  1364  1363  1364      1
  1365  1363  1365      1
  1366  1363  1366      1
  1367  1364  1367      1
  1368  1364  1368      1
  1369  1364  1369      1
  1370  1369  1370      1
  1371  1369  1371      1
  1372  1369  1372      1
  1373  1370  1373      1
  1374  1370  1374      1
  1375  1370  1375      1
  1376  1375  1376      1
  1377  1375  1377      1
  1378  1375  1378      1
  1379  1376  1379      1
  1380  1376  1380      1
  1381  1376  1381      1
  1382  1381  1382      1
  1383  1381  1383      1
  1384  1381  1384      1
  1385  1382  1385      1
  1386  1382  1386      1
  1387  1382  1387      1
  1388  1387  1388      1
  1389  1387  1389      1
  1390  1387  1390      1
  1391  1388  1391      1
  1392  1388  1392      1
  1393  1388  1393      1
  1394  1393  1394      1
  1395  1393  1395      1
  1396  1393  1396      1
  1397  1394  1397      1
  1398  1394  1398      1
  1399  1394  1399      1
  1400  1399  1400      1
  1401  1399  1401      1
  1402  1399  1402      1
  1403  1400  1403      1
  1404  1400  1404      1
  1405  1400  1405      1
  1406  1405  1406      1
  1407  1405  1407      1
  1408  1405  1408      1
  1409  1406  1409      1
  1410  1406  1410      1
  1411  1406  1411      1
  1412  1411  1412      1
  1413  1411  1413      1
  1414  1411  1414      1
  1415  1412  1415      1
  1416  1412  1416      1
  1417  1412  1417      1
  1418  1417  1418      1
  1419  1417  1419      1
  1420  1417  1420      1
  1421  1418  1421      1
  1422  1418  1422      1
  1423  1418  1423      1
  1424  1423  1424      1
  1425  1423  1425      1
  1426  1423  1426      1
  1427  1424  1427      1
  1428  1424  1428      1
  1429  1424  1429      1
  1430  1429  1430      1
  1431  1429  1431      1
  1432  1429  1432      1
  1433  1430  1433      1
  1434  1430  1434      1
  1435  1430  1435      1
  1436  1435  1436      1
  1437  1435  1437      1
  1438  1435  1438      1
  1439  1436  1439      1
  1440  1436  1440      1
  1441  1436  1441      1
  1442  1441  1442      1
  1443  1441  1443      1
  1444  1441  1444      1
  1445  1442  1445      1
  1446  1442  1446      1
  1447  1442  1447      1
  1448  1447  1448      1
  1449  1447  1449      1
  1450  1447  1450      1
  1451  1448  1451      1
  1452  1448  1452      1
  1453  1448  1453      1
  1454  1453  1454      1
  1455  1453  1455      1
  1456  1453  1456      1
  1457  1454  1457      1
  1458  1454  1458      1
  1459  1454  1459      1
  1460  1459  1460      1
  1461  1459  1461      1
  1462  1459  1462      1
  1463  1460  1463      1
  1464  1460  1464      1
  1465  1460  1465      1
  1466  1465  1466      1
  1467  1465  1467      1
  1468  1465  1468      1
  1469  1466  1469      1
  1470  1466  1470      1
  1471  1466  1471      1
  1472  1471  1472      1
  1473  1471  1473      1
  1474  1471  1474      1
  1475  1472  1475      1
  1476  1472  1476      1
  1477  1472  1477      1
  1478  1477  1478      1
  1479  1477  1479      1
  1480  1477  1480      1
  1481  1478  1481      1
  1482  1478  1482      1
  1483  1478  1483      1
  1484  1483  1484      1
  1485  1483  1485      1
  1486  1483  1486      1
  1487  1484  1487      1
  1488  1484  1488      1
  1489  1484  1489      1
  1490  1489  1490      1
  1491  1489  1491      1
  1492  1489  1492      1
  1493  1490  1493      1
  1494  1490  1494      1
  1495  1490  1495      1
  1496  1495  1496      1
  1497  1495  1497      1
  1498  1495  1498      1
  1499  1496  1499      1
  1500  1496  1500      1
  1501  1496  1501      1
  1502  1501  1502      1
  1503  1501  1503      1
  1504  1501  1504      1
  1505  1502  1505      1
  1506  1502  1506      1
  1507  1502  1507      1
  1508  1507  1508      1
  1509  1507  1509      1
  1510  1507  1510      1
  1511  1508  1511      1
  1512  1508  1512      1
  1513  1508  1513      1
  1514  1513  1514      1
  1515  1513  1515      1
  1516  1513  1516      1
  1517  1514  1517      1
  1518  1514  1518      1
  1519  1514  1519      1
  1520  1519  1520      1
  1521  1519  1521      1
  1522  1519  1522      1
  1523  1520  1523      1
  1524  1520  1524      1
  1525  1520  1525      1
  1526  1525  1526      1
  1527  1525  1527      1
  1528  1525  1528      1
  1529  1526  1529      1
  1530  1526  1530      1
  1531  1526  1531      1
  1532  1531  1532      1
  1533  1531  1533      1
  1534  1531  1534      1
  1535  1532  1535      1
  1536  1532  1536      1
  1537  1532  1537      1
  1538  1537  1538      1
  1539  1537  1539      1
  1540  1537  1540      1
  1541  1538  1541      1
  1542  1538  1542      1
  1543  1538  1543      1
  1544  1543  1544      1
  1545  1543  1545      1
  1546  1543  1546      1
  1547  1544  1547      1
  1548  1544  1548      1
  1549  1544  1549      1
  1550  1549  1550      1
  1551  1549  1551      1
  1552  1549  1552      1
  1553  1550  1553      1
  1554  1550  1554      1
  1555  1550  1555      1
  1556  1555  1556      1
  1557  1555  1557      1
  1558  1555  1558      1
  1559  1556  1559      1
  1560  1556  1560      1
  1561  1556  1561      1
  1562  1561  1562      1
  1563  1561  1563      1
  1564  1561  1564      1
  1565  1562  1565      1
  1566  1562  1566      1
  1567  1562  1567      1
  1568  1567  1568      1
  1569  1567  1569      1
  1570  1567  1570      1
  1571  1568  1571      1
  1572  1568  1572      1
  1573  1568  1573      1
  1574  1573  1574      1
  1575  1573  1575      1
  1576  1573  1576      1
  1577  1574  1577      1
  1578  1574  1578      1
  1579  1574  1579      1
  1580  1579  1580      1
  1581  1579  1581      1
  1582  1579  1582      1
  1583  1580  1583      1
  1584  1580  1584      1
  1585  1580  1585      1
  1586  1585  1586      1
  1587  1585  1587      1
  1588  1585  1588      1
  1589  1586  1589      1
  1590  1586  1590      1
  1591  1586  1591      1
  1592  1591  1592      1
  1593  1591  1593      1
  1594  1591  1594      1
  1595  1592  1595      1
  1596  1592  1596      1
  1597  1592  1597      1
  1598  1597  1598      1
  1599  1597  1599      1
  1600  1597  1600      1
  1601  1598  1601      1
  1602  1598  1602      1
  1603  1598  1603      1
  1604  1603  1604      1
  1605  1603  1605      1
  1606  1603  1606      1
  1607  1604  1607      1
  1608  1604  1608      1
  1609  1604  1609      1
  1610  1609  1610      1
  1611  1609  1611      1
  1612  1609  1612      1
  1613  1610  1613      1
  1614  1610  1614      1
  1615  1610  1615      1
  1616  1615  1616      1
  1617  1615  1617      1
  1618  1615  1618      1
  1619  1616  1619      1
  1620  1616  1620      1
  1621  1616  1621      1
  1622  1621  1622      1
  1623  1621  1623      1
  1624  1621  1624      1
  1625  1622  1625      1
  1626  1622  1626      1
  1627  1622  1627      1
  1628  1627  1628      1
  1629  1627  1629      1
  1630  1627  1630      1
  1631  1628  1631      1
  1632  1628  1632      1
  1633  1628  1633      1
  1634  1633  1634      1
  1635  1633  1635      1
  1636  1633  1636      1
  1637  1634  1637      1
  1638  1634  1638      1
  1639  1634  1639      1
  1640  1639  1640      1
  1641  1639  1641      1
  1642  1639  1642      1
  1643  1640  1643      1
  1644  1640  1644      1
  1645  1640  1645      1
  1646  1645  1646      1
  1647  1645  1647      1
  1648  1645  1648      1
  1649  1646  1649      1
  1650  1646  1650      1
  1651  1646  1651      1
  1652  1651  1652      1
  1653  1651  1653      1
  1654  1651  1654      1
  1655  1652  1655      1
  1656  1652  1656      1
  1657  1652  1657      1
  1658  1657  1658      1
  1659  1657  1659      1
  1660  1657  1660      1
  1661  1658  1661      1
  1662  1658  1662      1
  1663  1658  1663      1
  1664  1663  1664      1
  1665  1663  1665      1
  1666  1663  1666      1
  1667  1664  1667      1
  1668  1664  1668      1
  1669  1664  1669      1
  1670  1669  1670      1
  1671  1669  1671      1
  1672  1669  1672      1
  1673  1670  1673      1
  1674  1670  1674      1
  1675  1670  1675      1
  1676  1675  1676      1
  1677  1675  1677      1
  1678  1675  1678      1
  1679  1676  1679      1
  1680  1676  1680      1
  1681  1676  1681      1
  1682  1681  1682      1
  1683  1681  1683      1
  1684  1681  1684      1
  1685  1682  1685      1
  1686  1682  1686      1
  1687  1682  1687      1
  1688  1687  1688      1
  1689  1687  1689      1
  1690  1687  1690      1
  1691  1688  1691      1
  1692  1688  1692      1
  1693  1688  1693      1
  1694  1693  1694      1
  1695  1693  1695      1
  1696  1693  1696      1
  1697  1694  1697      1
  1698  1694  1698      1
  1699  1694  1699      1
  1700  1699  1700      1
  1701  1699  1701      1
  1702  1699  1702      1
  1703  1700  1703      1
  1704  1700  1704      1
  1705  1700  1705      1
  1706  1705  1706      1
  1707  1705  1707      1
  1708  1705  1708      1
  1709  1706  1709      1
  1710  1706  1710      1
  1711  1706  1711      1
  1712  1711  1712      1
  1713  1711  1713      1
  1714  1711  1714      1
  1715  1712  1715      1
  1716  1712  1716      1
  1717  1712  1717      1
  1718  1717  1718      1
  1719  1717  1719      1
  1720  1717  1720      1
  1721  1718  1721      1
  1722  1718  1722      1
  1723  1718  1723      1
  1724  1723  1724      1
  1725  1723  1725      1
  1726  1723  1726      1
  1727  1724  1727      1
  1728  1724  1728      1
  1729  1724  1729      1
  1730  1729  1730      1
  1731  1729  1731      1
  1732  1729  1732      1
  1733  1730  1733      1
  1734  1730  1734      1
  1735  1730  1735      1
  1736  1735  1736      1
  1737  1735  1737      1
  1738  1735  1738      1
  1739  1736  1739      1
  1740  1736  1740      1
  1741  1736  1741      1
  1742  1741  1742      1
  1743  1741  1743      1
  1744  1741  1744      1
  1745  1742  1745      1
  1746  1742  1746      1
  1747  1742  1747      1
  1748  1747  1748      1
  1749  1747  1749      1
  1750  1747  1750      1
  1751  1748  1751      1
  1752  1748  1752      1
  1753  1748  1753      1
  1754  1753  1754      1
  1755  1753  1755      1
  1756  1753  1756      1
  1757  1754  1757      1
  1758  1754  1758      1
  1759  1754  1759      1
  1760  1759  1760      1
  1761  1759  1761      1
  1762  1759  1762      1
  1763  1760  1763      1
  1764  1760  1764      1
  1765  1760  1765      1
  1766  1765  1766      1
  1767  1765  1767      1
  1768  1765  1768      1
  1769  1766  1769      1
  1770  1766  1770      1
  1771  1766  1771      1
  1772  1771  1772      1
  1773  1771  1773      1
  1774  1771  1774      1
  1775  1772  1775      1
  1776  1772  1776      1
  1777  1772  1777      1
  1778  1777  1778      1
  1779  1777  1779      1
  1780  1777  1780      1
  1781  1778  1781      1
  1782  1778  1782      1
  1783  1778  1783      1
  1784  1783  1784      1
  1785  1783  1785      1
  1786  1783  1786      1
  1787  1784  1787      1
  1788  1784  1788      1
  1789  1784  1789      1
  1790  1789  1790      1
  1791  1789  1791      1
  1792  1789  1792      1
  1793  1790  1793      1
  1794  1790  1794      1
  1795  1790  1795      1
  1796  1795  1796      1
  1797  1795  1797      1
  1798  1795  1798      1
  1799  1796  1799      1
  1800  1796  1800      1
  1801  1796  1801      1
  1802  1801  1802      1
  1803  1801  1803      1
  1804  1801  1804      1
  1805  1802  1805      1
  1806  1802  1806      1
  1807  1802  1807      1
  1808  1807  1808      1
  1809  1807  1809      1
  1810  1807  1810      1
  1811  1808  1811      1
  1812  1808  1812      1
  1813  1808  1813      1
  1814  1813  1814      1
  1815  1813  1815      1
  1816  1813  1816      1
  1817  1814  1817      1
  1818  1814  1818      1
  1819  1814  1819      1
  1820  1819  1820      1
  1821  1819  1821      1
  1822  1819  1822      1
  1823  1820  1823      1
  1824  1820  1824      1
  1825  1820  1825      1
  1826  1825  1826      1
  1827  1825  1827      1
  1828  1825  1828      1
  1829  1826  1829      1
  1830  1826  1830      1
  1831  1826  1831      1
  1832  1831  1832      1
  1833  1831  1833      1
  1834  1831  1834      1
  1835  1832  1835      1
  1836  1832  1836      1
  1837  1832  1837      1
  1838  1837  1838      1
  1839  1837  1839      1
  1840  1837  1840      1
  1841  1838  1841      1
  1842  1838  1842      1
  1843  1838  1843      1
  1844  1843  1844      1
  1845  1843  1845      1
  1846  1843  1846      1
  1847  1844  1847      1
  1848  1844  1848      1
  1849  1844  1849      1
  1850  1849  1850      1
  1851  1849  1851      1
  1852  1849  1852      1
  1853  1850  1853      1
  1854  1850  1854      1
  1855  1850  1855      1
  1856  1855  1856      1
  1857  1855  1857      1
  1858  1855  1858      1
  1859  1856  1859      1
  1860  1856  1860      1
  1861  1856  1861      1
  1862  1861  1862      1
  1863  1861  1863      1
  1864  1861  1864      1
  1865  1862  1865      1
  1866  1862  1866      1
  1867  1862  1867      1
  1868  1867  1868      1
  1869  1867  1869      1
  1870  1867  1870      1
  1871  1868  1871      1
  1872  1868  1872      1
  1873  1868  1873      1
  1874  1873  1874      1
  1875  1873  1875      1
  1876  1873  1876      1
  1877  1874  1877      1
  1878  1874  1878      1
  1879  1874  1879      1
  1880  1879  1880      1
  1881  1879  1881      1
  1882  1879  1882      1
  1883  1880  1883      1
  1884  1880  1884      1
  1885  1880  1885      1
  1886  1885  1886      1
  1887  1885  1887      1
  1888  1885  1888      1
  1889  1886  1889      1
  1890  1886  1890      1
  1891  1886  1891      1
  1892  1891  1892      1
  1893  1891  1893      1
  1894  1891  1894      1
  1895  1892  1895      1
  1896  1892  1896      1
  1897  1892  1897      1
  1898  1897  1898      1
  1899  1897  1899      1
  1900  1897  1900      1
  1901  1898  1901      1
  1902  1898  1902      1
  1903  1898  1903      1
  1904  1903  1904      1
  1905  1903  1905      1
  1906  1903  1906      1
  1907  1904  1907      1
  1908  1904  1908      1
  1909  1904  1909      1
  1910  1909  1910      1
  1911  1909  1911      1
  1912  1909  1912      1
  1913  1910  1913      1
  1914  1910  1914      1
  1915  1910  1915      1
  1916  1915  1916      1
  1917  1915  1917      1
  1918  1915  1918      1
  1919  1916  1919      1
  1920  1916  1920      1
  1921  1916  1921      1
  1922  1921  1922      1
  1923  1921  1923      1
  1924  1921  1924      1
  1925  1922  1925      1
  1926  1922  1926      1
  1927  1922  1927      1
  1928  1927  1928      1
  1929  1927  1929      1
  1930  1927  1930      1
  1931  1928  1931      1
  1932  1928  1932      1
  1933  1928  1933      1
  1934  1933  1934      1
  1935  1933  1935      1
  1936  1933  1936      1
  1937  1934  1937      1
  1938  1934  1938      1
  1939  1934  1939      1
  1940  1939  1940      1
  1941  1939  1941      1
  1942  1939  1942      1
  1943  1940  1943      1
  1944  1940  1944      1
  1945  1940  1945      1
  1946  1945  1946      1
  1947  1945  1947      1
  1948  1945  1948      1
  1949  1946  1949      1
  1950  1946  1950      1
  1951  1946  1951      1
  1952  1951  1952      1
  1953  1951  1953      1
  1954  1951  1954      1
  1955  1952  1955      1
  1956  1952  1956      1
  1957  1952  1957      1
  1958  1957  1958      1
  1959  1957  1959      1
  1960  1957  1960      1
  1961  1958  1961      1
  1962  1958  1962      1
  1963  1958  1963      1
  1964  1963  1964      1
  1965  1963  1965      1
  1966  1963  1966      1
  1967  1964  1967      1
  1968  1964  1968      1
  1969  1964  1969      1
  1970  1969  1970      1
  1971  1969  1971      1
  1972  1969  1972      1
  1973  1970  1973      1
  1974  1970  1974      1
  1975  1970  1975      1
  1976  1975  1976      1
  1977  1975  1977      1
  1978  1975  1978      1
  1979  1976  1979      1
  1980  1976  1980      1
  1981  1976  1981      1
  1982  1981  1982      1
  1983  1981  1983      1
  1984  1981  1984      1
  1985  1982  1985      1
  1986  1982  1986      1
  1987  1982  1987      1
  1988  1987  1988      1
  1989  1987  1989      1
  1990  1987  1990      1
  1991  1988  1991      1
  1992  1988  1992      1
  1993  1988  1993      1
  1994  1993  1994      1
  1995  1993  1995      1
  1996  1993  1996      1
  1997  1994  1997      1
  1998  1994  1998      1
  1999  1994  1999      1
  2000  1999  2000      1
  2001  1999  2001      1
  2002  1999  2002      1
  2003  2000  2003      1
  2004  2000  2004      1
  2005  2000  2005      1
  2006  2005  2006      1
  2007  2005  2007      1
  2008  2005  2008      1
  2009  2006  2009      1
  2010  2006  2010      1
  2011  2006  2011      1
  2012  2011  2012      1
  2013  2011  2013      1
  2014  2011  2014      1
  2015  2012  2015      1
  2016  2012  2016      1
  2017  2012  2017      1
  2018  2017  2018      1
  2019  2017  2019      1
  2020  2017  2020      1
  2021  2018  2021      1
  2022  2018  2022      1
  2023  2018  2023      1
  2024  2023  2024      1
  2025  2023  2025      1
  2026  2023  2026      1
  2027  2024  2027      1
  2028  2024  2028      1
  2029  2024  2029      1
  2030  2029  2030      1
  2031  2029  2031      1
  2032  2029  2032      1
  2033  2030  2033      1
  2034  2030  2034      1
  2035  2030  2035      1
  2036  2035  2036      1
  2037  2035  2037      1
  2038  2035  2038      1
  2039  2036  2039      1
  2040  2036  2040      1
  2041  2036  2041      1
  2042  2041  2042      1
  2043  2041  2043      1
  2044  2041  2044      1
  2045  2042  2045      1
  2046  2042  2046      1
  2047  2042  2047      1
  2048  2047  2048      1
  2049  2047  2049      1
  2050  2047  2050      1
  2051  2048  2051      1
  2052  2048  2052      1
  2053  2048  2053      1
  2054  2053  2054      1
  2055  2053  2055      1
  2056  2053  2056      1
  2057  2054  2057      1
  2058  2054  2058      1
  2059  2054  2059      1
  2060  2059  2060      1
  2061  2059  2061      1
  2062  2059  2062      1
  2063  2060  2063      1
  2064  2060  2064      1
  2065  2060  2065      1
  2066  2065  2066      1
  2067  2065  2067      1
  2068  2065  2068      1
  2069  2066  2069      1
  2070  2066  2070      1
  2071  2066  2071      1
  2072  2071  2072      1
  2073  2071  2073      1
  2074  2071  2074      1
  2075  2072  2075      1
  2076  2072  2076      1
  2077  2072  2077      1
  2078  2077  2078      1
  2079  2077  2079      1
  2080  2077  2080      1
  2081  2078  2081      1
  2082  2078  2082      1
  2083  2078  2083      1
  2084  2083  2084      1
  2085  2083  2085      1
  2086  2083  2086      1
  2087  2084  2087      1
  2088  2084  2088      1
  2089  2084  2089      1
  2090  2089  2090      1
  2091  2089  2091      1
  2092  2089  2092      1
  2093  2090  2093      1
  2094  2090  2094      1
  2095  2090  2095      1
  2096  2095  2096      1
  2097  2095  2097      1
  2098  2095  2098      1
  2099  2096  2099      1
  2100  2096  2100      1
  2101  2096  2101      1
  2102  2101  2102      1
  2103  2101  2103      1
  2104  2101  2104      1
  2105  2102  2105      1
  2106  2102  2106      1
  2107  2102  2107      1
  2108  2107  2108      1
  2109  2107  2109      1
  2110  2107  2110      1
  2111  2108  2111      1
  2112  2108  2112      1
  2113  2108  2113      1
  2114  2113  2114      1
  2115  2113  2115      1
  2116  2113  2116      1
  2117  2114  2117      1
  2118  2114  2118      1
  2119  2114  2119      1
  2120  2119  2120      1
  2121  2119  2121      1
  2122  2119  2122      1
  2123  2120  2123      1
  2124  2120  2124      1
  2125  2120  2125      1
  2126  2125  2126      1
  2127  2125  2127      1
  2128  2125  2128      1
  2129  2126  2129      1
  2130  2126  2130      1
  2131  2126  2131      1
  2132  2131  2132      1
  2133  2131  2133      1
  2134  2131  2134      1
  2135  2132  2135      1
  2136  2132  2136      1
  2137  2132  2137      1
  2138  2137  2138      1
  2139  2137  2139      1
  2140  2137  2140      1
  2141  2138  2141      1
  2142  2138  2142      1
  2143  2138  2143      1
  2144  2143  2144      1
  2145  2143  2145      1
  2146  2143  2146      1
  2147  2144  2147      1
  2148  2144  2148      1
  2149  2144  2149      1
  2150  2149  2150      1
  2151  2149  2151      1
  2152  2149  2152      1
  2153  2150  2153      1
  2154  2150  2154      1
  2155  2150  2155      1
  2156  2155  2156      1
  2157  2155  2157      1
  2158  2155  2158      1
  2159  2156  2159      1
  2160  2156  2160      1
  2161  2156  2161      1
  2162  2161  2162      1
  2163  2161  2163      1
  2164  2161  2164      1
  2165  2162  2165      1
  2166  2162  2166      1
  2167  2162  2167      1
  2168  2167  2168      1
  2169  2167  2169      1
  2170  2167  2170      1
  2171  2168  2171      1
  2172  2168  2172      1
  2173  2168  2173      1
  2174  2173  2174      1
  2175  2173  2175      1
  2176  2173  2176      1
  2177  2174  2177      1
  2178  2174  2178      1
  2179  2174  2179      1
  2180  2179  2180      1
  2181  2179  2181      1
  2182  2179  2182      1
  2183  2180  2183      1
  2184  2180  2184      1
  2185  2180  2185      1
  2186  2185  2186      1
  2187  2185  2187      1
  2188  2185  2188      1
  2189  2186  2189      1
  2190  2186  2190      1
  2191  2186  2191      1
  2192  2191  2192      1
  2193  2191  2193      1
  2194  2191  2194      1
  2195  2192  2195      1
  2196  2192  2196      1
  2197  2192  2197      1
  2198  2197  2198      1
  2199  2197  2199      1
  2200  2197  2200      1
  2201  2198  2201      1
  2202  2198  2202      1
  2203  2198  2203      1
  2204  2203  2204      1
  2205  2203  2205      1
  2206  2203  2206      1
  2207  2204  2207      1
  2208  2204  2208      1
  2209  2204  2209      1
  2210  2209  2210      1
  2211  2209  2211      1
  2212  2209  2212      1
  2213  2210  2213      1
  2214  2210  2214      1
  2215  2210  2215      1
  2216  2215  2216      1
  2217  2215  2217      1
  2218  2215  2218      1
  2219  2216  2219      1
  2220  2216  2220      1
  2221  2216  2221      1
  2222  2221  2222      1
  2223  2221  2223      1
  2224  2221  2224      1
  2225  2222  2225      1
  2226  2222  2226      1
  2227  2222  2227      1
  2228  2227  2228      1
  2229  2227  2229      1
  2230  2227  2230      1
  2231  2228  2231      1
  2232  2228  2232      1
  2233  2228  2233      1
  2234  2233  2234      1
  2235  2233  2235      1
  2236  2233  2236      1
  2237  2234  2237      1
  2238  2234  2238      1
  2239  2234  2239      1
  2240  2239  2240      1
  2241  2239  2241      1
  2242  2239  2242      1
  2243  2240  2243      1
  2244  2240  2244      1
  2245  2240  2245      1
  2246  2245  2246      1
  2247  2245  2247      1
  2248  2245  2248      1
  2249  2246  2249      1
  2250  2246  2250      1
  2251  2246  2251      1
  2252  2251  2252      1
  2253  2251  2253      1
  2254  2251  2254      1
  2255  2252  2255      1
  2256  2252  2256      1
  2257  2252  2257      1
  2258  2257  2258      1
  2259  2257  2259      1
  2260  2257  2260      1
  2261  2258  2261      1
  2262  2258  2262      1
  2263  2258  2263      1
  2264  2263  2264      1
  2265  2263  2265      1
  2266  2263  2266      1
  2267  2264  2267      1
  2268  2264  2268      1
  2269  2264  2269      1
  2270  2269  2270      1
  2271  2269  2271      1
  2272  2269  2272      1
  2273  2270  2273      1
  2274  2270  2274      1
  2275  2270  2275      1
  2276  2275  2276      1
  2277  2275  2277      1
  2278  2275  2278      1
  2279  2276  2279      1
  2280  2276  2280      1
  2281  2276  2281      1
  2282  2281  2282      1
  2283  2281  2283      1
  2284  2281  2284      1
  2285  2282  2285      1
  2286  2282  2286      1
  2287  2282  2287      1
  2288  2287  2288      1
  2289  2287  2289      1
  2290  2287  2290      1
  2291  2288  2291      1
  2292  2288  2292      1
  2293  2288  2293      1
  2294  2293  2294      1
  2295  2293  2295      1
  2296  2293  2296      1
  2297  2294  2297      1
  2298  2294  2298      1
  2299  2294  2299      1
  2300  2299  2300      1
  2301  2299  2301      1
  2302  2299  2302      1
  2303  2300  2303      1
  2304  2300  2304      1
  2305  2300  2305      1
  2306  2305  2306      1
  2307  2305  2307      1
  2308  2305  2308      1
  2309  2306  2309      1
  2310  2306  2310      1
  2311  2306  2311      1
  2312  2311  2312      1
  2313  2311  2313      1
  2314  2311  2314      1
  2315  2312  2315      1
  2316  2312  2316      1
  2317  2312  2317      1
  2318  2317  2318      1
  2319  2317  2319      1
  2320  2317  2320      1
  2321  2318  2321      1
  2322  2318  2322      1
  2323  2318  2323      1
  2324  2323  2324      1
  2325  2323  2325      1
  2326  2323  2326      1
  2327  2324  2327      1
  2328  2324  2328      1
  2329  2324  2329      1
  2330  2329  2330      1
  2331  2329  2331      1
  2332  2329  2332      1
  2333  2330  2333      1
  2334  2330  2334      1
  2335  2330  2335      1
  2336  2335  2336      1
  2337  2335  2337      1
  2338  2335  2338      1
  2339  2336  2339      1
  2340  2336  2340      1
  2341  2336  2341      1
  2342  2341  2342      1
  2343  2341  2343      1
  2344  2341  2344      1
  2345  2342  2345      1
  2346  2342  2346      1
  2347  2342  2347      1
  2348  2347  2348      1
  2349  2347  2349      1
  2350  2347  2350      1
  2351  2348  2351      1
  2352  2348  2352      1
  2353  2348  2353      1
  2354  2353  2354      1
  2355  2353  2355      1
  2356  2353  2356      1
  2357  2354  2357      1
  2358  2354  2358      1
  2359  2354  2359      1
  2360  2359  2360      1
  2361  2359  2361      1
  2362  2359  2362      1
  2363  2360  2363      1
  2364  2360  2364      1
  2365  2360  2365      1
  2366  2365  2366      1
  2367  2365  2367      1
  2368  2365  2368      1
  2369  2366  2369      1
  2370  2366  2370      1
  2371  2366  2371      1
  2372  2371  2372      1
  2373  2371  2373      1
  2374  2371  2374      1
  2375  2372  2375      1
  2376  2372  2376      1
  2377  2372  2377      1
  2378  2377  2378      1
  2379  2377  2379      1
  2380  2377  2380      1
  2381  2378  2381      1
  2382  2378  2382      1
  2383  2378  2383      1
  2384  2383  2384      1
  2385  2383  2385      1
  2386  2383  2386      1
  2387  2384  2387      1
  2388  2384  2388      1
  2389  2384  2389      1
  2390  2389  2390      1
  2391  2389  2391      1
  2392  2389  2392      1
  2393  2390  2393      1
  2394  2390  2394      1
  2395  2390  2395      1
  2396  2395  2396      1
  2397  2395  2397      1
  2398  2395  2398      1
  2399  2396  2399      1
  2400  2396  2400      1
  2401  2396  2401      1
  2402  2401  2402      1
  2403  2401  2403      1
  2404  2401  2404      1
  2405  2402  2405      1
  2406  2402  2406      1
  2407  2402  2407      1
  2408  2407  2408      1
  2409  2407  2409      1
  2410  2407  2410      1
  2411  2408  2411      1
  2412  2408  2412      1
  2413  2408  2413      1
  2414  2413  2414      1
  2415  2413  2415      1
  2416  2413  2416      1
  2417  2414  2417      1
  2418  2414  2418      1
  2419  2414  2419      1
  2420  2419  2420      1
  2421  2419  2421      1
  2422  2419  2422      1
  2423  2420  2423      1
  2424  2420  2424      1
  2425  2420  2425      1
  2426  2425  2426      1
  2427  2425  2427      1
  2428  2425  2428      1
  2429  2426  2429      1
  2430  2426  2430      1
  2431  2426  2431      1
  2432  2431  2432      1
  2433  2431  2433      1
  2434  2431  2434      1
  2435  2432  2435      1
  2436  2432  2436      1
  2437  2432  2437      1
  2438  2437  2438      1
  2439  2437  2439      1
  2440  2437  2440      1
  2441  2438  2441      1
  2442  2438  2442      1
  2443  2438  2443      1
  2444  2443  2444      1
  2445  2443  2445      1
  2446  2443  2446      1
  2447  2444  2447      1
  2448  2444  2448      1
  2449  2444  2449      1
  2450  2449  2450      1
  2451  2449  2451      1
  2452  2449  2452      1
  2453  2450  2453      1
  2454  2450  2454      1
  2455  2450  2455      1
  2456  2455  2456      1
  2457  2455  2457      1
  2458  2455  2458      1
  2459  2456  2459      1
  2460  2456  2460      1
  2461  2456  2461      1
  2462  2461  2462      1
  2463  2461  2463      1
  2464  2461  2464      1
  2465  2462  2465      1
  2466  2462  2466      1
  2467  2462  2467      1
  2468  2467  2468      1
  2469  2467  2469      1
  2470  2467  2470      1
  2471  2468  2471      1
  2472  2468  2472      1
  2473  2468  2473      1
  2474  2473  2474      1
  2475  2473  2475      1
  2476  2473  2476      1
  2477  2474  2477      1
  2478  2474  2478      1
  2479  2474  2479      1
  2480  2479  2480      1
  2481  2479  2481      1
  2482  2479  2482      1
  2483  2480  2483      1
  2484  2480  2484      1
  2485  2480  2485      1
  2486  2485  2486      1
  2487  2485  2487      1
  2488  2485  2488      1
  2489  2486  2489      1
  2490  2486  2490      1
  2491  2486  2491      1
  2492  2491  2492      1
  2493  2491  2493      1
  2494  2491  2494      1
  2495  2492  2495      1
  2496  2492  2496      1
  2497  2492  2497      1
  2498  2497  2498      1
  2499  2497  2499      1
  2500  2497  2500      1
  2501  2498  2501      1
  2502  2498  2502      1
  2503  2498  2503      1
  2504  2503  2504      1
  2505  2503  2505      1
  2506  2503  2506      1
  2507  2504  2507      1
  2508  2504  2508      1
  2509  2504  2509      1
  2510  2509  2510      1
  2511  2509  2511      1
  2512  2509  2512      1
  2513  2510  2513      1
  2514  2510  2514      1
  2515  2510  2515      1
  2516  2515  2516      1
  2517  2515  2517      1
  2518  2515  2518      1
  2519  2516  2519      1
  2520  2516  2520      1
  2521  2516  2521      1
  2522  2521  2522      1
  2523  2521  2523      1
  2524  2521  2524      1
  2525  2522  2525      1
  2526  2522  2526      1
  2527  2522  2527      1
  2528  2527  2528      1
  2529  2527  2529      1
  2530  2527  2530      1
  2531  2528  2531      1
  2532  2528  2532      1
  2533  2528  2533      1
  2534  2533  2534      1
  2535  2533  2535      1
  2536  2533  2536      1
  2537  2534  2537      1
  2538  2534  2538      1
  2539  2534  2539      1
  2540  2539  2540      1
  2541  2539  2541      1
  2542  2539  2542      1
  2543  2540  2543      1
  2544  2540  2544      1
  2545  2540  2545      1
  2546  2545  2546      1
  2547  2545  2547      1
  2548  2545  2548      1
  2549  2546  2549      1
  2550  2546  2550      1
  2551  2546  2551      1
  2552  2551  2552      1
  2553  2551  2553      1
  2554  2551  2554      1
  2555  2552  2555      1
  2556  2552  2556      1
  2557  2552  2557      1
  2558  2557  2558      1
  2559  2557  2559      1
  2560  2557  2560      1
  2561  2558  2561      1
  2562  2558  2562      1
  2563  2558  2563      1
  2564  2563  2564      1
  2565  2563  2565      1
  2566  2563  2566      1
  2567  2564  2567      1
  2568  2564  2568      1
  2569  2564  2569      1
  2570  2569  2570      1
  2571  2569  2571      1
  2572  2569  2572      1
  2573  2570  2573      1
  2574  2570  2574      1
  2575  2570  2575      1
  2576  2575  2576      1
  2577  2575  2577      1
  2578  2575  2578      1
  2579  2576  2579      1
  2580  2576  2580      1
  2581  2576  2581      1
  2582  2581  2582      1
  2583  2581  2583      1
  2584  2581  2584      1
  2585  2582  2585      1
  2586  2582  2586      1
  2587  2582  2587      1
  2588  2587  2588      1
  2589  2587  2589      1
  2590  2587  2590      1
  2591  2588  2591      1
  2592  2588  2592      1
  2593  2588  2593      1
  2594  2593  2594      1
  2595  2593  2595      1
  2596  2593  2596      1
  2597  2594  2597      1
  2598  2594  2598      1
  2599  2594  2599      1
  2600  2599  2600      1
  2601  2599  2601      1
  2602  2599  2602      1
  2603  2600  2603      1
  2604  2600  2604      1
  2605  2600  2605      1
  2606  2605  2606      1
  2607  2605  2607      1
  2608  2605  2608      1
  2609  2606  2609      1
  2610  2606  2610      1
  2611  2606  2611      1
  2612  2611  2612      1
  2613  2611  2613      1
  2614  2611  2614      1
  2615  2612  2615      1
  2616  2612  2616      1
  2617  2612  2617      1
  2618  2617  2618      1
  2619  2617  2619      1
  2620  2617  2620      1
  2621  2618  2621      1
  2622  2618  2622      1
  2623  2618  2623      1
  2624  2623  2624      1
  2625  2623  2625      1
  2626  2623  2626      1
  2627  2624  2627      1
  2628  2624  2628      1
  2629  2624  2629      1
  2630  2629  2630      1
  2631  2629  2631      1
  2632  2629  2632      1
  2633  2630  2633      1
  2634  2630  2634      1
  2635  2630  2635      1
  2636  2635  2636      1
  2637  2635  2637      1
  2638  2635  2638      1
  2639  2636  2639      1
  2640  2636  2640      1
  2641  2636  2641      1
  2642  2641  2642      1
  2643  2641  2643      1
  2644  2641  2644      1
  2645  2642  2645      1
  2646  2642  2646      1
  2647  2642  2647      1
  2648  2647  2648      1
  2649  2647  2649      1
  2650  2647  2650      1
  2651  2648  2651      1
  2652  2648  2652      1
  2653  2648  2653      1
  2654  2653  2654      1
  2655  2653  2655      1
  2656  2653  2656      1
  2657  2654  2657      1
  2658  2654  2658      1
  2659  2654  2659      1
  2660  2659  2660      1
  2661  2659  2661      1
  2662  2659  2662      1
  2663  2660  2663      1
  2664  2660  2664      1
  2665  2660  2665      1
  2666  2665  2666      1
  2667  2665  2667      1
  2668  2665  2668      1
  2669  2666  2669      1
  2670  2666  2670      1
  2671  2666  2671      1
  2672  2671  2672      1
  2673  2671  2673      1
  2674  2671  2674      1
  2675  2672  2675      1
  2676  2672  2676      1
  2677  2672  2677      1
  2678  2677  2678      1
  2679  2677  2679      1
  2680  2677  2680      1
  2681  2678  2681      1
  2682  2678  2682      1
  2683  2678  2683      1
  2684  2683  2684      1
  2685  2683  2685      1
  2686  2683  2686      1
  2687  2684  2687      1
  2688  2684  2688      1
  2689  2684  2689      1
  2690  2689  2690      1
  2691  2689  2691      1
  2692  2689  2692      1
  2693  2690  2693      1
  2694  2690  2694      1
  2695  2690  2695      1
  2696  2695  2696      1
  2697  2695  2697      1
  2698  2695  2698      1
  2699  2696  2699      1
  2700  2696  2700      1
  2701  2696  2701      1
  2702  2701  2702      1
  2703  2701  2703      1
  2704  2701  2704      1
  2705  2702  2705      1
  2706  2702  2706      1
  2707  2702  2707      1
  2708  2707  2708      1
  2709  2707  2709      1
  2710  2707  2710      1
  2711  2708  2711      1
  2712  2708  2712      1
  2713  2708  2713      1
  2714  2713  2714      1
  2715  2713  2715      1
  2716  2713  2716      1
  2717  2714  2717      1
  2718  2714  2718      1
  2719  2714  2719      1
  2720  2719  2720      1
  2721  2719  2721      1
  2722  2719  2722      1
  2723  2720  2723      1
  2724  2720  2724      1
  2725  2720  2725      1
  2726  2725  2726      1
  2727  2725  2727      1
  2728  2725  2728      1
  2729  2726  2729      1
  2730  2726  2730      1
  2731  2726  2731      1
  2732  2731  2732      1
  2733  2731  2733      1
  2734  2731  2734      1
  2735  2732  2735      1
  2736  2732  2736      1
  2737  2732  2737      1
  2738  2737  2738      1
  2739  2737  2739      1
  2740  2737  2740      1
  2741  2738  2741      1
  2742  2738  2742      1
  2743  2738  2743      1
  2744  2743  2744      1
  2745  2743  2745      1
  2746  2743  2746      1
  2747  2744  2747      1
  2748  2744  2748      1
  2749  2744  2749      1
  2750  2749  2750      1
  2751  2749  2751      1
  2752  2749  2752      1
  2753  2750  2753      1
  2754  2750  2754      1
  2755  2750  2755      1
  2756  2755  2756      1
  2757  2755  2757      1
  2758  2755  2758      1
  2759  2756  2759      1
  2760  2756  2760      1
  2761  2756  2761      1
  2762  2761  2762      1
  2763  2761  2763      1
  2764  2761  2764      1
  2765  2762  2765      1
  2766  2762  2766      1
  2767  2762  2767      1
  2768  2767  2768      1
  2769  2767  2769      1
  2770  2767  2770      1
  2771  2768  2771      1
  2772  2768  2772      1
  2773  2768  2773      1
  2774  2773  2774      1
  2775  2773  2775      1
  2776  2773  2776      1
  2777  2774  2777      1
  2778  2774  2778      1
  2779  2774  2779      1
  2780  2779  2780      1
  2781  2779  2781      1
  2782  2779  2782      1
  2783  2780  2783      1
  2784  2780  2784      1
  2785  2780  2785      1
  2786  2785  2786      1
  2787  2785  2787      1
  2788  2785  2788      1
  2789  2786  2789      1
  2790  2786  2790      1
  2791  2786  2791      1
  2792  2791  2792      1
  2793  2791  2793      1
  2794  2791  2794      1
  2795  2792  2795      1
  2796  2792  2796      1
  2797  2792  2797      1
  2798  2797  2798      1
  2799  2797  2799      1
  2800  2797  2800      1
  2801  2798  2801      1
  2802  2798  2802      1
  2803  2798  2803      1
  2804  2803  2804      1
  2805  2803  2805      1
  2806  2803  2806      1
  2807  2804  2807      1
  2808  2804  2808      1
  2809  2804  2809      1
  2810  2809  2810      1
  2811  2809  2811      1
  2812  2809  2812      1
  2813  2810  2813      1
  2814  2810  2814      1
  2815  2810  2815      1
  2816  2815  2816      1
  2817  2815  2817      1
  2818  2815  2818      1
  2819  2816  2819      1
  2820  2816  2820      1
  2821  2816  2821      1
  2822  2821  2822      1
  2823  2821  2823      1
  2824  2821  2824      1
  2825  2822  2825      1
  2826  2822  2826      1
  2827  2822  2827      1
  2828  2827  2828      1
  2829  2827  2829      1
  2830  2827  2830      1
  2831  2828  2831      1
  2832  2828  2832      1
  2833  2828  2833      1
  2834  2833  2834      1
  2835  2833  2835      1
  2836  2833  2836      1
  2837  2834  2837      1
  2838  2834  2838      1
  2839  2834  2839      1
  2840  2839  2840      1
  2841  2839  2841      1
  2842  2839  2842      1
  2843  2840  2843      1
  2844  2840  2844      1
  2845  2840  2845      1
  2846  2845  2846      1
  2847  2845  2847      1
  2848  2845  2848      1
  2849  2846  2849      1
  2850  2846  2850      1
  2851  2846  2851      1
  2852  2851  2852      1
  2853  2851  2853      1
  2854  2851  2854      1
  2855  2852  2855      1
  2856  2852  2856      1
  2857  2852  2857      1
  2858  2857  2858      1
  2859  2857  2859      1
  2860  2857  2860      1
  2861  2858  2861      1
  2862  2858  2862      1
  2863  2858  2863      1
  2864  2863  2864      1
  2865  2863  2865      1
  2866  2863  2866      1
  2867  2864  2867      1
  2868  2864  2868      1
  2869  2864  2869      1
  2870  2869  2870      1
  2871  2869  2871      1
  2872  2869  2872      1
  2873  2870  2873      1
  2874  2870  2874      1
  2875  2870  2875      1
  2876  2875  2876      1
  2877  2875  2877      1
  2878  2875  2878      1
  2879  2876  2879      1
  2880  2876  2880      1
  2881  2876  2881      1
  2882  2881  2882      1
  2883  2881  2883      1
  2884  2881  2884      1
  2885  2882  2885      1
  2886  2882  2886      1
  2887  2882  2887      1
  2888  2887  2888      1
  2889  2887  2889      1
  2890  2887  2890      1
  2891  2888  2891      1
  2892  2888  2892      1
  2893  2888  2893      1
  2894  2893  2894      1
  2895  2893  2895      1
  2896  2893  2896      1
  2897  2894  2897      1
  2898  2894  2898      1
  2899  2894  2899      1
  2900  2899  2900      1
  2901  2899  2901      1
  2902  2899  2902      1
  2903  2900  2903      1
  2904  2900  2904      1
  2905  2900  2905      1
  2906  2905  2906      1
  2907  2905  2907      1
  2908  2905  2908      1
  2909  2906  2909      1
  2910  2906  2910      1
  2911  2906  2911      1
  2912  2911  2912      1
  2913  2911  2913      1
  2914  2911  2914      1
  2915  2912  2915      1
  2916  2912  2916      1
  2917  2912  2917      1
  2918  2917  2918      1
  2919  2917  2919      1
  2920  2917  2920      1
  2921  2918  2921      1
  2922  2918  2922      1
  2923  2918  2923      1
  2924  2923  2924      1
  2925  2923  2925      1
  2926  2923  2926      1
  2927  2924  2927      1
  2928  2924  2928      1
  2929  2924  2929      1
  2930  2929  2930      1
  2931  2929  2931      1
  2932  2929  2932      1
  2933  2930  2933      1
  2934  2930  2934      1
  2935  2930  2935      1
  2936  2935  2936      1
  2937  2935  2937      1
  2938  2935  2938      1
  2939  2936  2939      1
  2940  2936  2940      1
  2941  2936  2941      1
  2942  2941  2942      1
  2943  2941  2943      1
  2944  2941  2944      1
  2945  2942  2945      1
  2946  2942  2946      1
  2947  2942  2947      1
  2948  2947  2948      1
  2949  2947  2949      1
  2950  2947  2950      1
  2951  2948  2951      1
  2952  2948  2952      1
  2953  2948  2953      1
  2954  2953  2954      1
  2955  2953  2955      1
  2956  2953  2956      1
  2957  2954  2957      1
  2958  2954  2958      1
  2959  2954  2959      1
  2960  2959  2960      1
  2961  2959  2961      1
  2962  2959  2962      1
  2963  2960  2963      1
  2964  2960  2964      1
  2965  2960  2965      1
  2966  2965  2966      1
  2967  2965  2967      1
  2968  2965  2968      1
  2969  2966  2969      1
  2970  2966  2970      1
  2971  2966  2971      1
  2972  2971  2972      1
  2973  2971  2973      1
  2974  2971  2974      1
  2975  2972  2975      1
  2976  2972  2976      1
  2977  2972  2977      1
  2978  2977  2978      1
  2979  2977  2979      1
  2980  2977  2980      1
  2981  2978  2981      1
  2982  2978  2982      1
  2983  2978  2983      1
  2984  2983  2984      1
  2985  2983  2985      1
  2986  2983  2986      1
  2987  2984  2987      1
  2988  2984  2988      1
  2989  2984  2989      1
  2990  2989  2990      1
  2991  2989  2991      1
  2992  2989  2992      1
  2993  2990  2993      1
  2994  2990  2994      1
  2995  2990  2995      1
  2996  2995  2996      1
  2997  2995  2997      1
  2998  2995  2998      1
  2999  2996  2999      1
  3000  2996  3000      1
  3001  2996  3001      1
  3002  3001  3002      1
  3003  3001  3003      1
  3004  3001  3004      1
  3005  3002  3005      1
  3006  3002  3006      1
  3007  3002  3007      1
  3008  3007  3008      1
  3009  3007  3009      1
  3010  3007  3010      1
  3011  3008  3011      1
  3012  3008  3012      1
  3013  3008  3013      1
  3014  3013  3014      1
  3015  3013  3015      1
  3016  3013  3016      1
  3017  3014  3017      1
  3018  3014  3018      1
  3019  3014  3019      1
  3020  3019  3020      1
  3021  3019  3021      1
  3022  3019  3022      1
  3023  3020  3023      1
  3024  3020  3024      1
  3025  3020  3025      1
  3026  3025  3026      1
  3027  3025  3027      1
  3028  3025  3028      1
  3029  3026  3029      1
  3030  3026  3030      1
  3031  3026  3031      1
  3032  3031  3032      1
  3033  3031  3033      1
  3034  3031  3034      1
  3035  3032  3035      1
  3036  3032  3036      1
  3037  3032  3037      1
  3038  3037  3038      1
  3039  3037  3039      1
  3040  3037  3040      1
  3041  3038  3041      1
  3042  3038  3042      1
  3043  3038  3043      1
  3044  3043  3044      1
  3045  3043  3045      1
  3046  3043  3046      1
  3047  3044  3047      1
  3048  3044  3048      1
  3049  3044  3049      1
  3050  3049  3050      1
  3051  3049  3051      1
  3052  3049  3052      1
  3053  3050  3053      1
  3054  3050  3054      1
  3055  3050  3055      1
  3056  3055  3056      1
  3057  3055  3057      1
  3058  3055  3058      1
  3059  3056  3059      1
  3060  3056  3060      1
  3061  3056  3061      1
  3062  3061  3062      1
  3063  3061  3063      1
  3064  3061  3064      1
  3065  3062  3065      1
  3066  3062  3066      1
  3067  3062  3067      1
  3068  3067  3068      1
  3069  3067  3069      1
  3070  3067  3070      1
  3071  3068  3071      1
  3072  3068  3072      1
  3073  3068  3073      1
  3074  3073  3074      1
  3075  3073  3075      1
  3076  3073  3076      1
  3077  3074  3077      1
  3078  3074  3078      1
  3079  3074  3079      1
  3080  3079  3080      1
  3081  3079  3081      1
  3082  3079  3082      1
  3083  3080  3083      1
  3084  3080  3084      1
  3085  3080  3085      1
  3086  3085  3086      1
  3087  3085  3087      1
  3088  3085  3088      1
  3089  3086  3089      1
  3090  3086  3090      1
  3091  3086  3091      1
  3092  3091  3092      1
  3093  3091  3093      1
  3094  3091  3094      1
  3095  3092  3095      1
  3096  3092  3096      1
  3097  3092  3097      1
  3098  3097  3098      1
  3099  3097  3099      1
  3100  3097  3100      1
  3101  3098  3101      1
  3102  3098  3102      1
  3103  3098  3103      1
  3104  3103  3104      1
  3105  3103  3105      1
  3106  3103  3106      1
  3107  3104  3107      1
  3108  3104  3108      1
  3109  3104  3109      1
  3110  3109  3110      1
  3111  3109  3111      1
  3112  3109  3112      1
  3113  3110  3113      1
  3114  3110  3114      1
  3115  3110  3115      1
  3116  3115  3116      1
  3117  3115  3117      1
  3118  3115  3118      1
  3119  3116  3119      1
  3120  3116  3120      1
  3121  3116  3121      1
  3122  3121  3122      1
  3123  3121  3123      1
  3124  3121  3124      1
  3125  3122  3125      1
  3126  3122  3126      1
  3127  3122  3127      1
  3128  3127  3128      1
  3129  3127  3129      1
  3130  3127  3130      1
  3131  3128  3131      1
  3132  3128  3132      1
  3133  3128  3133      1
  3134  3133  3134      1
  3135  3133  3135      1
  3136  3133  3136      1
  3137  3134  3137      1
  3138  3134  3138      1
  3139  3134  3139      1
  3140  3139  3140      1
  3141  3139  3141      1
  3142  3139  3142      1
  3143  3140  3143      1
  3144  3140  3144      1
  3145  3140  3145      1
  3146  3145  3146      1
  3147  3145  3147      1
  3148  3145  3148      1
  3149  3146  3149      1
  3150  3146  3150      1
  3151  3146  3151      1
  3152  3151  3152      1
  3153  3151  3153      1
  3154  3151  3154      1
  3155  3152  3155      1
  3156  3152  3156      1
  3157  3152  3157      1
  3158  3157  3158      1
  3159  3157  3159      1
  3160  3157  3160      1
  3161  3158  3161      1
  3162  3158  3162      1
  3163  3158  3163      1
  3164  3163  3164      1
  3165  3163  3165      1
  3166  3163  3166      1
  3167  3164  3167      1
  3168  3164  3168      1
  3169  3164  3169      1
  3170  3169  3170      1
  3171  3169  3171      1
  3172  3169  3172      1
  3173  3170  3173      1
  3174  3170  3174      1
  3175  3170  3175      1
  3176  3175  3176      1
  3177  3175  3177      1
  3178  3175  3178      1
  3179  3176  3179      1
  3180  3176  3180      1
  3181  3176  3181      1
  3182  3181  3182      1
  3183  3181  3183      1
  3184  3181  3184      1
  3185  3182  3185      1
  3186  3182  3186      1
  3187  3182  3187      1
  3188  3187  3188      1
  3189  3187  3189      1
  3190  3187  3190      1
  3191  3188  3191      1
  3192  3188  3192      1
  3193  3188  3193      1
  3194  3193  3194      1
  3195  3193  3195      1
  3196  3193  3196      1
  3197  3194  3197      1
  3198  3194  3198      1
  3199  3194  3199      1
  3200  3199  3200      1
  3201  3199  3201      1
  3202  3199  3202      1
  3203  3200  3203      1
  3204  3200  3204      1
  3205  3200  3205      1
  3206  3205  3206      1
  3207  3205  3207      1
  3208  3205  3208      1
  3209  3206  3209      1
  3210  3206  3210      1
  3211  3206  3211      1
  3212  3211  3212      1
  3213  3211  3213      1
  3214  3211  3214      1
  3215  3212  3215      1
  3216  3212  3216      1
  3217  3212  3217      1
  3218  3217  3218      1
  3219  3217  3219      1
  3220  3217  3220      1
  3221  3218  3221      1
  3222  3218  3222      1
  3223  3218  3223      1
  3224  3223  3224      1
  3225  3223  3225      1
  3226  3223  3226      1
  3227  3224  3227      1
  3228  3224  3228      1
  3229  3224  3229      1
  3230  3229  3230      1
  3231  3229  3231      1
  3232  3229  3232      1
  3233  3230  3233      1
  3234  3230  3234      1
  3235  3230  3235      1
  3236  3235  3236      1
  3237  3235  3237      1
  3238  3235  3238      1
  3239  3236  3239      1
  3240  3236  3240      1
  3241  3236  3241      1
  3242  3241  3242      1
  3243  3241  3243      1
  3244  3241  3244      1
  3245  3242  3245      1
  3246  3242  3246      1
  3247  3242  3247      1
  3248  3247  3248      1
  3249  3247  3249      1
  3250  3247  3250      1
  3251  3248  3251      1
  3252  3248  3252      1
  3253  3248  3253      1
  3254  3253  3254      1
  3255  3253  3255      1
  3256  3253  3256      1
  3257  3254  3257      1
  3258  3254  3258      1
  3259  3254  3259      1
  3260  3259  3260      1
  3261  3259  3261      1
  3262  3259  3262      1
  3263  3260  3263      1
  3264  3260  3264      1
  3265  3260  3265      1
  3266  3265  3266      1
  3267  3265  3267      1
  3268  3265  3268      1
  3269  3266  3269      1
  3270  3266  3270      1
  3271  3266  3271      1
  3272  3271  3272      1
  3273  3271  3273      1
  3274  3271  3274      1
  3275  3272  3275      1
  3276  3272  3276      1
  3277  3272  3277      1
  3278  3277  3278      1
  3279  3277  3279      1
  3280  3277  3280      1
  3281  3278  3281      1
  3282  3278  3282      1
  3283  3278  3283      1
  3284  3283  3284      1
  3285  3283  3285      1
  3286  3283  3286      1
  3287  3284  3287      1
  3288  3284  3288      1
  3289  3284  3289      1
  3290  3289  3290      1
  3291  3289  3291      1
  3292  3289  3292      1
  3293  3290  3293      1
  3294  3290  3294      1
  3295  3290  3295      1
  3296  3295  3296      1
  3297  3295  3297      1
  3298  3295  3298      1
  3299  3296  3299      1
  3300  3296  3300      1
  3301  3296  3301      1
  3302  3301  3302      1
  3303  3301  3303      1
  3304  3301  3304      1
  3305  3302  3305      1
  3306  3302  3306      1
  3307  3302  3307      1
  3308  3307  3308      1
  3309  3307  3309      1
  3310  3307  3310      1
  3311  3308  3311      1
  3312  3308  3312      1
  3313  3308  3313      1
  3314  3313  3314      1
  3315  3313  3315      1
  3316  3313  3316      1
  3317  3314  3317      1
  3318  3314  3318      1
  3319  3314  3319      1
  3320  3319  3320      1
  3321  3319  3321      1
  3322  3319  3322      1
  3323  3320  3323      1
  3324  3320  3324      1
  3325  3320  3325      1
  3326  3325  3326      1
  3327  3325  3327      1
  3328  3325  3328      1
  3329  3326  3329      1
  3330  3326  3330      1
  3331  3326  3331      1
  3332  3331  3332      1
  3333  3331  3333      1
  3334  3331  3334      1
  3335  3332  3335      1
  3336  3332  3336      1
  3337  3332  3337      1
  3338  3337  3338      1
  3339  3337  3339      1
  3340  3337  3340      1
  3341  3338  3341      1
  3342  3338  3342      1
  3343  3338  3343      1
  3344  3343  3344      1
  3345  3343  3345      1
  3346  3343  3346      1
  3347  3344  3347      1
  3348  3344  3348      1
  3349  3344  3349      1
  3350  3349  3350      1
  3351  3349  3351      1
  3352  3349  3352      1
  3353  3350  3353      1
  3354  3350  3354      1
  3355  3350  3355      1
  3356  3355  3356      1
  3357  3355  3357      1
  3358  3355  3358      1
  3359  3356  3359      1
  3360  3356  3360      1
  3361  3356  3361      1
  3362  3361  3362      1
  3363  3361  3363      1
  3364  3361  3364      1
  3365  3362  3365      1
  3366  3362  3366      1
  3367  3362  3367      1
  3368  3367  3368      1
  3369  3367  3369      1
  3370  3367  3370      1
  3371  3368  3371      1
  3372  3368  3372      1
  3373  3368  3373      1
  3374  3373  3374      1
  3375  3373  3375      1
  3376  3373  3376      1
  3377  3374  3377      1
  3378  3374  3378      1
  3379  3374  3379      1
  3380  3379  3380      1
  3381  3379  3381      1
  3382  3379  3382      1
  3383  3380  3383      1
  3384  3380  3384      1
  3385  3380  3385      1
  3386  3385  3386      1
  3387  3385  3387      1
  3388  3385  3388      1
  3389  3386  3389      1
  3390  3386  3390      1
  3391  3386  3391      1
  3392  3391  3392      1
  3393  3391  3393      1
  3394  3391  3394      1
  3395  3392  3395      1
  3396  3392  3396      1
  3397  3392  3397      1
  3398  3397  3398      1
  3399  3397  3399      1
  3400  3397  3400      1
  3401  3398  3401      1
  3402  3398  3402      1
  3403  3398  3403      1
  3404  3403  3404      1
  3405  3403  3405      1
  3406  3403  3406      1
  3407  3404  3407      1
  3408  3404  3408      1
  3409  3404  3409      1
  3410  3409  3410      1
  3411  3409  3411      1
  3412  3409  3412      1
  3413  3410  3413      1
  3414  3410  3414      1
  3415  3410  3415      1
  3416  3415  3416      1
  3417  3415  3417      1
  3418  3415  3418      1
  3419  3416  3419      1
  3420  3416  3420      1
  3421  3416  3421      1
  3422  3421  3422      1
  3423  3421  3423      1
  3424  3421  3424      1
  3425  3422  3425      1
  3426  3422  3426      1
  3427  3422  3427      1
  3428  3427  3428      1
  3429  3427  3429      1
  3430  3427  3430      1
  3431  3428  3431      1
  3432  3428  3432      1
  3433  3428  3433      1
  3434  3433  3434      1
  3435  3433  3435      1
  3436  3433  3436      1
  3437  3434  3437      1
  3438  3434  3438      1
  3439  3434  3439      1
  3440  3439  3440      1
  3441  3439  3441      1
  3442  3439  3442      1
  3443  3440  3443      1
  3444  3440  3444      1
  3445  3440  3445      1
  3446  3445  3446      1
  3447  3445  3447      1
  3448  3445  3448      1
  3449  3446  3449      1
  3450  3446  3450      1
  3451  3446  3451      1
  3452  3451  3452      1
  3453  3451  3453      1
  3454  3451  3454      1
  3455  3452  3455      1
  3456  3452  3456      1
  3457  3452  3457      1
  3458  3457  3458      1
  3459  3457  3459      1
  3460  3457  3460      1
  3461  3458  3461      1
  3462  3458  3462      1
  3463  3458  3463      1
  3464  3463  3464      1
  3465  3463  3465      1
  3466  3463  3466      1
  3467  3464  3467      1
  3468  3464  3468      1
  3469  3464  3469      1
  3470  3469  3470      1
  3471  3469  3471      1
  3472  3469  3472      1
  3473  3470  3473      1
  3474  3470  3474      1
  3475  3470  3475      1
  3476  3475  3476      1
  3477  3475  3477      1
  3478  3475  3478      1
  3479  3476  3479      1
  3480  3476  3480      1
  3481  3476  3481      1
  3482  3481  3482      1
  3483  3481  3483      1
  3484  3481  3484      1
  3485  3482  3485      1
  3486  3482  3486      1
  3487  3482  3487      1
  3488  3487  3488      1
  3489  3487  3489      1
  3490  3487  3490      1
  3491  3488  3491      1
  3492  3488  3492      1
  3493  3488  3493      1
  3494  3493  3494      1
  3495  3493  3495      1
  3496  3493  3496      1
  3497  3494  3497      1
  3498  3494  3498      1
  3499  3494  3499      1
  3500  3499  3500      1
  3501  3499  3501      1
  3502  3499  3502      1
  3503  3500  3503      1
  3504  3500  3504      1
  3505  3500  3505      1
  3506  3505  3506      1
  3507  3505  3507      1
  3508  3505  3508      1
  3509  3506  3509      1
  3510  3506  3510      1
  3511  3506  3511      1
  3512  3511  3512      1
  3513  3511  3513      1
  3514  3511  3514      1
  3515  3512  3515      1
  3516  3512  3516      1
  3517  3512  3517      1
  3518  3517  3518      1
  3519  3517  3519      1
  3520  3517  3520      1
  3521  3518  3521      1
  3522  3518  3522      1
  3523  3518  3523      1
  3524  3523  3524      1
  3525  3523  3525      1
  3526  3523  3526      1
  3527  3524  3527      1
  3528  3524  3528      1
  3529  3524  3529      1
  3530  3529  3530      1
  3531  3529  3531      1
  3532  3529  3532      1
  3533  3530  3533      1
  3534  3530  3534      1
  3535  3530  3535      1
  3536  3535  3536      1
  3537  3535  3537      1
  3538  3535  3538      1
  3539  3536  3539      1
  3540  3536  3540      1
  3541  3536  3541      1
  3542  3541  3542      1
  3543  3541  3543      1
  3544  3541  3544      1
  3545  3542  3545      1
  3546  3542  3546      1
  3547  3542  3547      1
  3548  3547  3548      1
  3549  3547  3549      1
  3550  3547  3550      1
  3551  3548  3551      1
  3552  3548  3552      1
  3553  3548  3553      1
  3554  3553  3554      1
  3555  3553  3555      1
  3556  3553  3556      1
  3557  3554  3557      1
  3558  3554  3558      1
  3559  3554  3559      1
  3560  3559  3560      1
  3561  3559  3561      1
  3562  3559  3562      1
  3563  3560  3563      1
  3564  3560  3564      1
  3565  3560  3565      1
  3566  3565  3566      1
  3567  3565  3567      1
  3568  3565  3568      1
  3569  3566  3569      1
  3570  3566  3570      1
  3571  3566  3571      1
  3572  3571  3572      1
  3573  3571  3573      1
  3574  3571  3574      1
  3575  3572  3575      1
  3576  3572  3576      1
  3577  3572  3577      1
  3578  3577  3578      1
  3579  3577  3579      1
  3580  3577  3580      1
  3581  3578  3581      1
  3582  3578  3582      1
  3583  3578  3583      1
  3584  3583  3584      1
  3585  3583  3585      1
  3586  3583  3586      1
  3587  3584  3587      1
  3588  3584  3588      1
  3589  3584  3589      1
  3590  3589  3590      1
  3591  3589  3591      1
  3592  3589  3592      1
  3593  3590  3593      1
  3594  3590  3594      1
  3595  3590  3595      1
  3596  3595  3596      1
  3597  3595  3597      1
  3598  3595  3598      1
  3599  3596  3599      1
  3600  3596  3600      1
  3601  3596  3601      1
  3602  3601  3602      1
  3603  3601  3603      1
  3604  3601  3604      1
  3605  3602  3605      1
  3606  3602  3606      1
  3607  3602  3607      1
  3608  3607  3608      1
  3609  3607  3609      1
  3610  3607  3610      1
  3611  3608  3611      1
  3612  3608  3612      1
  3613  3608  3613      1
  3614  3613  3614      1
  3615  3613  3615      1
  3616  3613  3616      1
  3617  3614  3617      1
  3618  3614  3618      1
  3619  3614  3619      1
  3620  3619  3620      1
  3621  3619  3621      1
  3622  3619  3622      1
  3623  3620  3623      1
  3624  3620  3624      1
  3625  3620  3625      1
  3626  3625  3626      1
  3627  3625  3627      1
  3628  3625  3628      1
  3629  3626  3629      1
  3630  3626  3630      1
  3631  3626  3631      1
  3632  3631  3632      1
  3633  3631  3633      1
  3634  3631  3634      1
  3635  3632  3635      1
  3636  3632  3636      1
  3637  3632  3637      1
  3638  3637  3638      1
  3639  3637  3639      1
  3640  3637  3640      1
  3641  3638  3641      1
  3642  3638  3642      1
  3643  3638  3643      1
  3644  3643  3644      1
  3645  3643  3645      1
  3646  3643  3646      1
  3647  3644  3647      1
  3648  3644  3648      1
  3649  3644  3649      1
  3650  3649  3650      1
  3651  3649  3651      1
  3652  3649  3652      1
  3653  3650  3653      1
  3654  3650  3654      1
  3655  3650  3655      1
  3656  3655  3656      1
  3657  3655  3657      1
  3658  3655  3658      1
  3659  3656  3659      1
  3660  3656  3660      1
  3661  3656  3661      1
  3662  3661  3662      1
  3663  3661  3663      1
  3664  3661  3664      1
  3665  3662  3665      1
  3666  3662  3666      1
  3667  3662  3667      1
  3668  3667  3668      1
  3669  3667  3669      1
  3670  3667  3670      1
  3671  3668  3671      1
  3672  3668  3672      1
  3673  3668  3673      1
  3674  3673  3674      1
  3675  3673  3675      1
  3676  3673  3676      1
  3677  3674  3677      1
  3678  3674  3678      1
  3679  3674  3679      1
  3680  3679  3680      1
  3681  3679  3681      1
  3682  3679  3682      1
  3683  3680  3683      1
  3684  3680  3684      1
  3685  3680  3685      1
  3686  3685  3686      1
  3687  3685  3687      1
  3688  3685  3688      1
  3689  3686  3689      1
  3690  3686  3690      1
  3691  3686  3691      1
  3692  3691  3692      1
  3693  3691  3693      1
  3694  3691  3694      1
  3695  3692  3695      1
  3696  3692  3696      1
  3697  3692  3697      1
  3698  3697  3698      1
  3699  3697  3699      1
  3700  3697  3700      1
  3701  3698  3701      1
  3702  3698  3702      1
  3703  3698  3703      1
  3704  3703  3704      1
  3705  3703  3705      1
  3706  3703  3706      1
  3707  3704  3707      1
  3708  3704  3708      1
  3709  3704  3709      1
  3710  3709  3710      1
  3711  3709  3711      1
  3712  3709  3712      1
  3713  3710  3713      1
  3714  3710  3714      1
  3715  3710  3715      1
  3716  3715  3716      1
  3717  3715  3717      1
  3718  3715  3718      1
  3719  3716  3719      1
  3720  3716  3720      1
  3721  3716  3721      1
  3722  3721  3722      1
  3723  3721  3723      1
  3724  3721  3724      1
  3725  3722  3725      1
  3726  3722  3726      1
  3727  3722  3727      1
  3728  3727  3728      1
  3729  3727  3729      1
  3730  3727  3730      1
  3731  3728  3731      1
  3732  3728  3732      1
  3733  3728  3733      1
  3734  3733  3734      1
  3735  3733  3735      1
  3736  3733  3736      1
  3737  3734  3737      1
  3738  3734  3738      1
  3739  3734  3739      1
  3740  3739  3740      1
  3741  3739  3741      1
  3742  3739  3742      1
  3743  3740  3743      1
  3744  3740  3744      1
  3745  3740  3745      1
  3746  3745  3746      1
  3747  3745  3747      1
  3748  3745  3748      1
  3749  3746  3749      1
  3750  3746  3750      1
  3751  3746  3751      1
  3752  3751  3752      1
  3753  3751  3753      1
  3754  3751  3754      1
  3755  3752  3755      1
  3756  3752  3756      1
  3757  3752  3757      1
  3758  3757  3758      1
  3759  3757  3759      1
  3760  3757  3760      1
  3761  3758  3761      1
  3762  3758  3762      1
  3763  3758  3763      1
  3764  3763  3764      1
  3765  3763  3765      1
  3766  3763  3766      1
  3767  3764  3767      1
  3768  3764  3768      1
  3769  3764  3769      1
  3770  3769  3770      1
  3771  3769  3771      1
  3772  3769  3772      1
  3773  3770  3773      1
  3774  3770  3774      1
  3775  3770  3775      1
  3776  3775  3776      1
  3777  3775  3777      1
  3778  3775  3778      1
  3779  3776  3779      1
  3780  3776  3780      1
  3781  3776  3781      1
  3782  3781  3782      1
  3783  3781  3783      1
  3784  3781  3784      1
  3785  3782  3785      1
  3786  3782  3786      1
  3787  3782  3787      1
  3788  3787  3788      1
  3789  3787  3789      1
  3790  3787  3790      1
  3791  3788  3791      1
  3792  3788  3792      1
  3793  3788  3793      1
  3794  3793  3794      1
  3795  3793  3795      1
  3796  3793  3796      1
  3797  3794  3797      1
  3798  3794  3798      1
  3799  3794  3799      1
  3800  3799  3800      1
  3801  3799  3801      1
  3802  3799  3802      1
  3803  3800  3803      1
  3804  3800  3804      1
  3805  3800  3805      1
  3806  3805  3806      1
  3807  3805  3807      1
  3808  3805  3808      1
  3809  3806  3809      1
  3810  3806  3810      1
  3811  3806  3811      1
  3812  3811  3812      1
  3813  3811  3813      1
  3814  3811  3814      1
  3815  3812  3815      1
  3816  3812  3816      1
  3817  3812  3817      1
  3818  3817  3818      1
  3819  3817  3819      1
  3820  3817  3820      1
  3821  3818  3821      1
  3822  3818  3822      1
  3823  3818  3823      1
  3824  3823  3824      1
  3825  3823  3825      1
  3826  3823  3826      1
  3827  3824  3827      1
  3828  3824  3828      1
  3829  3824  3829      1
  3830  3829  3830      1
  3831  3829  3831      1
  3832  3829  3832      1
  3833  3830  3833      1
  3834  3830  3834      1
  3835  3830  3835      1
  3836  3835  3836      1
  3837  3835  3837      1
  3838  3835  3838      1
  3839  3836  3839      1
  3840  3836  3840      1
  3841  3836  3841      1
  3842  3841  3842      1
  3843  3841  3843      1
  3844  3841  3844      1
  3845  3842  3845      1
  3846  3842  3846      1
  3847  3842  3847      1
  3848  3847  3848      1
  3849  3847  3849      1
  3850  3847  3850      1
  3851  3848  3851      1
  3852  3848  3852      1
  3853  3848  3853      1
  3854  3853  3854      1
  3855  3853  3855      1
  3856  3853  3856      1
  3857  3854  3857      1
  3858  3854  3858      1
  3859  3854  3859      1
  3860  3859  3860      1
  3861  3859  3861      1
  3862  3859  3862      1
  3863  3860  3863      1
  3864  3860  3864      1
  3865  3860  3865      1
  3866  3865  3866      1
  3867  3865  3867      1
  3868  3865  3868      1
  3869  3866  3869      1
  3870  3866  3870      1
  3871  3866  3871      1
  3872  3871  3872      1
  3873  3871  3873      1
  3874  3871  3874      1
  3875  3872  3875      1
  3876  3872  3876      1
  3877  3872  3877      1
  3878  3877  3878      1
  3879  3877  3879      1
  3880  3877  3880      1
  3881  3878  3881      1
  3882  3878  3882      1
  3883  3878  3883      1
  3884  3883  3884      1
  3885  3883  3885      1
  3886  3883  3886      1
  3887  3884  3887      1
  3888  3884  3888      1
  3889  3884  3889      1
  3890  3889  3890      1
  3891  3889  3891      1
  3892  3889  3892      1
  3893  3890  3893      1
  3894  3890  3894      1
  3895  3890  3895      1
  3896  3895  3896      1
  3897  3895  3897      1
  3898  3895  3898      1
  3899  3896  3899      1
  3900  3896  3900      1
  3901  3896  3901      1
  3902  3901  3902      1
  3903  3901  3903      1
  3904  3901  3904      1
  3905  3902  3905      1
  3906  3902  3906      1
  3907  3902  3907      1
  3908  3907  3908      1
  3909  3907  3909      1
  3910  3907  3910      1
  3911  3908  3911      1
  3912  3908  3912      1
  3913  3908  3913      1
  3914  3913  3914      1
  3915  3913  3915      1
  3916  3913  3916      1
  3917  3914  3917      1
  3918  3914  3918      1
  3919  3914  3919      1
  3920  3919  3920      1
  3921  3919  3921      1
  3922  3919  3922      1
  3923  3920  3923      1
  3924  3920  3924      1
  3925  3920  3925      1
  3926  3925  3926      1
  3927  3925  3927      1
  3928  3925  3928      1
  3929  3926  3929      1
  3930  3926  3930      1
  3931  3926  3931      1
  3932  3931  3932      1
  3933  3931  3933      1
  3934  3931  3934      1
  3935  3932  3935      1
  3936  3932  3936      1
  3937  3932  3937      1
  3938  3937  3938      1
  3939  3937  3939      1
  3940  3937  3940      1
  3941  3938  3941      1
  3942  3938  3942      1
  3943  3938  3943      1
  3944  3943  3944      1
  3945  3943  3945      1
  3946  3943  3946      1
  3947  3944  3947      1
  3948  3944  3948      1
  3949  3944  3949      1
  3950  3949  3950      1
  3951  3949  3951      1
  3952  3949  3952      1
  3953  3950  3953      1
  3954  3950  3954      1
  3955  3950  3955      1
  3956  3955  3956      1
  3957  3955  3957      1
  3958  3955  3958      1
  3959  3956  3959      1
  3960  3956  3960      1
  3961  3956  3961      1
  3962  3961  3962      1
  3963  3961  3963      1
  3964  3961  3964      1
  3965  3962  3965      1
  3966  3962  3966      1
  3967  3962  3967      1
  3968  3967  3968      1
  3969  3967  3969      1
  3970  3967  3970      1
  3971  3968  3971      1
  3972  3968  3972      1
  3973  3968  3973      1
  3974  3973  3974      1
  3975  3973  3975      1
  3976  3973  3976      1
  3977  3974  3977      1
  3978  3974  3978      1
  3979  3974  3979      1
  3980  3979  3980      1
  3981  3979  3981      1
  3982  3979  3982      1
  3983  3980  3983      1
  3984  3980  3984      1
  3985  3980  3985      1
  3986  3985  3986      1
  3987  3985  3987      1
  3988  3985  3988      1
  3989  3986  3989      1
  3990  3986  3990      1
  3991  3986  3991      1
  3992  3991  3992      1
  3993  3991  3993      1
  3994  3991  3994      1
  3995  3992  3995      1
  3996  3992  3996      1
  3997  3992  3997      1
  3998  3997  3998      1
  3999  3997  3999      1
  4000  3997  4000      1
  4001  3998  4001      1
  4002  3998  4002      1
  4003  3998  4003      1
  4004  4003  4004      1
  4005  4003  4005      1
  4006  4003  4006      1
  4007  4004  4007      1
  4008  4004  4008      1
  4009  4004  4009      1
  4010  4009  4010      1
  4011  4009  4011      1
  4012  4009  4012      1
  4013  4010  4013      1
  4014  4010  4014      1
  4015  4010  4015      1
  4016  4015  4016      1
  4017  4015  4017      1
  4018  4015  4018      1
  4019  4016  4019      1
  4020  4016  4020      1
  4021  4016  4021      1
  4022  4021  4022      1
  4023  4021  4023      1
  4024  4021  4024      1
  4025  4022  4025      1
  4026  4022  4026      1
  4027  4022  4027      1
  4028  4027  4028      1
  4029  4027  4029      1
  4030  4027  4030      1
  4031  4028  4031      1
  4032  4028  4032      1
  4033  4028  4033      1
  4034  4033  4034      1
  4035  4033  4035      1
  4036  4033  4036      1
  4037  4034  4037      1
  4038  4034  4038      1
  4039  4034  4039      1
  4040  4039  4040      1
  4041  4039  4041      1
  4042  4039  4042      1
  4043  4040  4043      1
  4044  4040  4044      1
  4045  4040  4045      1
  4046  4045  4046      1
  4047  4045  4047      1
  4048  4045  4048      1
  4049  4046  4049      1
  4050  4046  4050      1
  4051  4046  4051      1
  4052  4051  4052      1
  4053  4051  4053      1
  4054  4051  4054      1
  4055  4052  4055      1
  4056  4052  4056      1
  4057  4052  4057      1
  4058  4057  4058      1
  4059  4057  4059      1
  4060  4057  4060      1
  4061  4058  4061      1
  4062  4058  4062      1
  4063  4058  4063      1
  4064  4063  4064      1
  4065  4063  4065      1
  4066  4063  4066      1
  4067  4064  4067      1
  4068  4064  4068      1
  4069  4064  4069      1
  4070  4069  4070      1
  4071  4069  4071      1
  4072  4069  4072      1
  4073  4070  4073      1
  4074  4070  4074      1
  4075  4070  4075      1
  4076  4075  4076      1
  4077  4075  4077      1
  4078  4075  4078      1
  4079  4076  4079      1
  4080  4076  4080      1
  4081  4076  4081      1
  4082  4081  4082      1
  4083  4081  4083      1
  4084  4081  4084      1
  4085  4082  4085      1
  4086  4082  4086      1
  4087  4082  4087      1
  4088  4087  4088      1
  4089  4087  4089      1
  4090  4087  4090      1
  4091  4088  4091      1
  4092  4088  4092      1
  4093  4088  4093      1
  4094  4093  4094      1
  4095  4093  4095      1
  4096  4093  4096      1
  4097  4094  4097      1
  4098  4094  4098      1
  4099  4094  4099      1
  4100  4099  4100      1
  4101  4099  4101      1
  4102  4099  4102      1
  4103  4100  4103      1
  4104  4100  4104      1
  4105  4100  4105      1
  4106  4105  4106      1
  4107  4105  4107      1
  4108  4105  4108      1
  4109  4106  4109      1
  4110  4106  4110      1
  4111  4106  4111      1
  4112  4111  4112      1
  4113  4111  4113      1
  4114  4111  4114      1
  4115  4112  4115      1
  4116  4112  4116      1
  4117  4112  4117      1
  4118  4117  4118      1
  4119  4117  4119      1
  4120  4117  4120      1
  4121  4118  4121      1
  4122  4118  4122      1
  4123  4118  4123      1
  4124  4123  4124      1
  4125  4123  4125      1
  4126  4123  4126      1
  4127  4124  4127      1
  4128  4124  4128      1
  4129  4124  4129      1
  4130  4129  4130      1
  4131  4129  4131      1
  4132  4129  4132      1
  4133  4130  4133      1
  4134  4130  4134      1
  4135  4130  4135      1
  4136  4135  4136      1
  4137  4135  4137      1
  4138  4135  4138      1
  4139  4136  4139      1
  4140  4136  4140      1
  4141  4136  4141      1
  4142  4141  4142      1
  4143  4141  4143      1
  4144  4141  4144      1
  4145  4142  4145      1
  4146  4142  4146      1
  4147  4142  4147      1
  4148  4147  4148      1
  4149  4147  4149      1
  4150  4147  4150      1
  4151  4148  4151      1
  4152  4148  4152      1
  4153  4148  4153      1
  4154  4153  4154      1
  4155  4153  4155      1
  4156  4153  4156      1
  4157  4154  4157      1
  4158  4154  4158      1
  4159  4154  4159      1
  4160  4159  4160      1
  4161  4159  4161      1
  4162  4159  4162      1
  4163  4160  4163      1
  4164  4160  4164      1
  4165  4160  4165      1
  4166  4165  4166      1
  4167  4165  4167      1
  4168  4165  4168      1
  4169  4166  4169      1
  4170  4166  4170      1
  4171  4166  4171      1
  4172  4171  4172      1
  4173  4171  4173      1
  4174  4171  4174      1
  4175  4172  4175      1
  4176  4172  4176      1
  4177  4172  4177      1
  4178  4177  4178      1
  4179  4177  4179      1
  4180  4177  4180      1
  4181  4178  4181      1
  4182  4178  4182      1
  4183  4178  4183      1
  4184  4183  4184      1
  4185  4183  4185      1
  4186  4183  4186      1
  4187  4184  4187      1
  4188  4184  4188      1
  4189  4184  4189      1
  4190  4189  4190      1
  4191  4189  4191      1
  4192  4189  4192      1
  4193  4190  4193      1
  4194  4190  4194      1
  4195  4190  4195      1
  4196  4195  4196      1
  4197  4195  4197      1
  4198  4195  4198      1
  4199  4196  4199      1
  4200  4196  4200      1
  4201  4196  4201      1
  4202  4201  4202      1
  4203  4201  4203      1
  4204  4201  4204      1
  4205  4202  4205      1
  4206  4202  4206      1
  4207  4202  4207      1
  4208  4207  4208      1
  4209  4207  4209      1
  4210  4207  4210      1
  4211  4208  4211      1
  4212  4208  4212      1
  4213  4208  4213      1
  4214  4213  4214      1
  4215  4213  4215      1
  4216  4213  4216      1
  4217  4214  4217      1
  4218  4214  4218      1
  4219  4214  4219      1
  4220  4219  4220      1
  4221  4219  4221      1
  4222  4219  4222      1
  4223  4220  4223      1
  4224  4220  4224      1
  4225  4220  4225      1
  4226  4225  4226      1
  4227  4225  4227      1
  4228  4225  4228      1
  4229  4226  4229      1
  4230  4226  4230      1
  4231  4226  4231      1
  4232  4231  4232      1
  4233  4231  4233      1
  4234  4231  4234      1
  4235  4232  4235      1
  4236  4232  4236      1
  4237  4232  4237      1
  4238  4237  4238      1
  4239  4237  4239      1
  4240  4237  4240      1
  4241  4238  4241      1
  4242  4238  4242      1
  4243  4238  4243      1
  4244  4243  4244      1
  4245  4243  4245      1
  4246  4243  4246      1
  4247  4244  4247      1
  4248  4244  4248      1
  4249  4244  4249      1
  4250  4249  4250      1
  4251  4249  4251      1
  4252  4249  4252      1
  4253  4250  4253      1
  4254  4250  4254      1
  4255  4250  4255      1
  4256  4255  4256      1
  4257  4255  4257      1
  4258  4255  4258      1
  4259  4256  4259      1
  4260  4256  4260      1
  4261  4256  4261      1
  4262  4261  4262      1
  4263  4261  4263      1
  4264  4261  4264      1
  4265  4262  4265      1
  4266  4262  4266      1
  4267  4262  4267      1
  4268  4267  4268      1
  4269  4267  4269      1
  4270  4267  4270      1
  4271  4268  4271      1
  4272  4268  4272      1
  4273  4268  4273      1
  4274  4273  4274      1
  4275  4273  4275      1
  4276  4273  4276      1
  4277  4274  4277      1
  4278  4274  4278      1
  4279  4274  4279      1
  4280  4279  4280      1
  4281  4279  4281      1
  4282  4279  4282      1
  4283  4280  4283      1
  4284  4280  4284      1
  4285  4280  4285      1
  4286  4285  4286      1
  4287  4285  4287      1
  4288  4285  4288      1
  4289  4286  4289      1
  4290  4286  4290      1
  4291  4286  4291      1
  4292  4291  4292      1
  4293  4291  4293      1
  4294  4291  4294      1
  4295  4292  4295      1
  4296  4292  4296      1
  4297  4292  4297      1
  4298  4297  4298      1
  4299  4297  4299      1
  4300  4297  4300      1
  4301  4298  4301      1
  4302  4298  4302      1
  4303  4298  4303      1
  4304  4303  4304      1
  4305  4303  4305      1
  4306  4303  4306      1
  4307  4304  4307      1
  4308  4304  4308      1
  4309  4304  4309      1
  4310  4309  4310      1
  4311  4309  4311      1
  4312  4309  4312      1
  4313  4310  4313      1
  4314  4310  4314      1
  4315  4310  4315      1
  4316  4315  4316      1
  4317  4315  4317      1
  4318  4315  4318      1
  4319  4316  4319      1
  4320  4316  4320      1
  4321  4316  4321      1
  4322  4321  4322      1
  4323  4321  4323      1
  4324  4321  4324      1
  4325  4322  4325      1
  4326  4322  4326      1
  4327  4322  4327      1
  4328  4327  4328      1
  4329  4327  4329      1
  4330  4327  4330      1
  4331  4328  4331      1
  4332  4328  4332      1
  4333  4328  4333      1
  4334  4333  4334      1
  4335  4333  4335      1
  4336  4333  4336      1
  4337  4334  4337      1
  4338  4334  4338      1
  4339  4334  4339      1
  4340  4339  4340      1
  4341  4339  4341      1
  4342  4339  4342      1
  4343  4340  4343      1
  4344  4340  4344      1
  4345  4340  4345      1
  4346  4345  4346      1
  4347  4345  4347      1
  4348  4345  4348      1
  4349  4346  4349      1
  4350  4346  4350      1
  4351  4346  4351      1
  4352  4351  4352      1
  4353  4351  4353      1
  4354  4351  4354      1
  4355  4352  4355      1
  4356  4352  4356      1
  4357  4352  4357      1
  4358  4357  4358      1
  4359  4357  4359      1
  4360  4357  4360      1
  4361  4358  4361      1
  4362  4358  4362      1
  4363  4358  4363      1
  4364  4363  4364      1
  4365  4363  4365      1
  4366  4363  4366      1
  4367  4364  4367      1
  4368  4364  4368      1
  4369  4364  4369      1
  4370  4369  4370      1
  4371  4369  4371      1
  4372  4369  4372      1
  4373  4370  4373      1
  4374  4370  4374      1
  4375  4370  4375      1
  4376  4375  4376      1
  4377  4375  4377      1
  4378  4375  4378      1
  4379  4376  4379      1
  4380  4376  4380      1
  4381  4376  4381      1
  4382  4381  4382      1
  4383  4381  4383      1
  4384  4381  4384      1
  4385  4382  4385      1
  4386  4382  4386      1
  4387  4382  4387      1
  4388  4387  4388      1
  4389  4387  4389      1
  4390  4387  4390      1
  4391  4388  4391      1
  4392  4388  4392      1
  4393  4388  4393      1
  4394  4393  4394      1
  4395  4393  4395      1
  4396  4393  4396      1
  4397  4394  4397      1
  4398  4394  4398      1
  4399  4394  4399      1
  4400  4399  4400      1
  4401  4399  4401      1
  4402  4399  4402      1
  4403  4400  4403      1
  4404  4400  4404      1
  4405  4400  4405      1
  4406  4405  4406      1
  4407  4405  4407      1
  4408  4405  4408      1
  4409  4406  4409      1
  4410  4406  4410      1
  4411  4406  4411      1
  4412  4411  4412      1
  4413  4411  4413      1
  4414  4411  4414      1
  4415  4412  4415      1
  4416  4412  4416      1
  4417  4412  4417      1
  4418  4417  4418      1
  4419  4417  4419      1
  4420  4417  4420      1
  4421  4418  4421      1
  4422  4418  4422      1
  4423  4418  4423      1
  4424  4423  4424      1
  4425  4423  4425      1
  4426  4423  4426      1
  4427  4424  4427      1
  4428  4424  4428      1
  4429  4424  4429      1
  4430  4429  4430      1
  4431  4429  4431      1
  4432  4429  4432      1
  4433  4430  4433      1
  4434  4430  4434      1
  4435  4430  4435      1
  4436  4435  4436      1
  4437  4435  4437      1
  4438  4435  4438      1
  4439  4436  4439      1
  4440  4436  4440      1
  4441  4436  4441      1
  4442  4441  4442      1
  4443  4441  4443      1
  4444  4441  4444      1
  4445  4442  4445      1
  4446  4442  4446      1
  4447  4442  4447      1
  4448  4447  4448      1
  4449  4447  4449      1
  4450  4447  4450      1
  4451  4448  4451      1
  4452  4448  4452      1
  4453  4448  4453      1
  4454  4453  4454      1
  4455  4453  4455      1
  4456  4453  4456      1
  4457  4454  4457      1
  4458  4454  4458      1
  4459  4454  4459      1
  4460  4459  4460      1
  4461  4459  4461      1
  4462  4459  4462      1
  4463  4460  4463      1
  4464  4460  4464      1
  4465  4460  4465      1
  4466  4465  4466      1
  4467  4465  4467      1
  4468  4465  4468      1
  4469  4466  4469      1
  4470  4466  4470      1
  4471  4466  4471      1
  4472  4471  4472      1
  4473  4471  4473      1
  4474  4471  4474      1
  4475  4472  4475      1
  4476  4472  4476      1
  4477  4472  4477      1
  4478  4477  4478      1
  4479  4477  4479      1
  4480  4477  4480      1
  4481  4478  4481      1
  4482  4478  4482      1
  4483  4478  4483      1
  4484  4483  4484      1
  4485  4483  4485      1
  4486  4483  4486      1
  4487  4484  4487      1
  4488  4484  4488      1
  4489  4484  4489      1
  4490  4489  4490      1
  4491  4489  4491      1
  4492  4489  4492      1
  4493  4490  4493      1
  4494  4490  4494      1
  4495  4490  4495      1
  4496  4495  4496      1
  4497  4495  4497      1
  4498  4495  4498      1
  4499  4496  4499      1
  4500  4496  4500      1
  4501  4496  4501      1
  4502  4501  4502      1
  4503  4501  4503      1
  4504  4501  4504      1
  4505  4502  4505      1
  4506  4502  4506      1
  4507  4502  4507      1
  4508  4507  4508      1
  4509  4507  4509      1
  4510  4507  4510      1
  4511  4508  4511      1
  4512  4508  4512      1
  4513  4508  4513      1
  4514  4513  4514      1
  4515  4513  4515      1
  4516  4513  4516      1
  4517  4514  4517      1
  4518  4514  4518      1
  4519  4514  4519      1
  4520  4519  4520      1
  4521  4519  4521      1
  4522  4519  4522      1
  4523  4520  4523      1
  4524  4520  4524      1
  4525  4520  4525      1
  4526  4525  4526      1
  4527  4525  4527      1
  4528  4525  4528      1
  4529  4526  4529      1
  4530  4526  4530      1
  4531  4526  4531      1
  4532  4531  4532      1
  4533  4531  4533      1
  4534  4531  4534      1
  4535  4532  4535      1
  4536  4532  4536      1
  4537  4532  4537      1
  4538  4537  4538      1
  4539  4537  4539      1
  4540  4537  4540      1
  4541  4538  4541      1
  4542  4538  4542      1
  4543  4538  4543      1
  4544  4543  4544      1
  4545  4543  4545      1
  4546  4543  4546      1
  4547  4544  4547      1
  4548  4544  4548      1
  4549  4544  4549      1
  4550  4549  4550      1
  4551  4549  4551      1
  4552  4549  4552      1
  4553  4550  4553      1
  4554  4550  4554      1
  4555  4550  4555      1
  4556  4555  4556      1
  4557  4555  4557      1
  4558  4555  4558      1
  4559  4556  4559      1
  4560  4556  4560      1
  4561  4556  4561      1
  4562  4561  4562      1
  4563  4561  4563      1
  4564  4561  4564      1
  4565  4562  4565      1
  4566  4562  4566      1
  4567  4562  4567      1
  4568  4567  4568      1
  4569  4567  4569      1
  4570  4567  4570      1
  4571  4568  4571      1
  4572  4568  4572      1
  4573  4568  4573      1
  4574  4573  4574      1
  4575  4573  4575      1
  4576  4573  4576      1
  4577  4574  4577      1
  4578  4574  4578      1
  4579  4574  4579      1
  4580  4579  4580      1
  4581  4579  4581      1
  4582  4579  4582      1
  4583  4580  4583      1
  4584  4580  4584      1
  4585  4580  4585      1
  4586  4585  4586      1
  4587  4585  4587      1
  4588  4585  4588      1
  4589  4586  4589      1
  4590  4586  4590      1
  4591  4586  4591      1
  4592  4591  4592      1
  4593  4591  4593      1
  4594  4591  4594      1
  4595  4592  4595      1
  4596  4592  4596      1
  4597  4592  4597      1
  4598  4597  4598      1
  4599  4597  4599      1
  4600  4597  4600      1
  4601  4598  4601      1
  4602  4598  4602      1
  4603  4598  4603      1
  4604  4603  4604      1
  4605  4603  4605      1
  4606  4603  4606      1
  4607  4604  4607      1
  4608  4604  4608      1
  4609  4604  4609      1
  4610  4609  4610      1
  4611  4609  4611      1
  4612  4609  4612      1
  4613  4610  4613      1
  4614  4610  4614      1
  4615  4610  4615      1
  4616  4615  4616      1
  4617  4615  4617      1
  4618  4615  4618      1
  4619  4616  4619      1
  4620  4616  4620      1
  4621  4616  4621      1
  4622  4621  4622      1
  4623  4621  4623      1
  4624  4621  4624      1
  4625  4622  4625      1
  4626  4622  4626      1
  4627  4622  4627      1
  4628  4627  4628      1
  4629  4627  4629      1
  4630  4627  4630      1
  4631  4628  4631      1
  4632  4628  4632      1
  4633  4628  4633      1
  4634  4633  4634      1
  4635  4633  4635      1
  4636  4633  4636      1
  4637  4634  4637      1
  4638  4634  4638      1
  4639  4634  4639      1
  4640  4639  4640      1
  4641  4639  4641      1
  4642  4639  4642      1
  4643  4640  4643      1
  4644  4640  4644      1
  4645  4640  4645      1
  4646  4645  4646      1
  4647  4645  4647      1
  4648  4645  4648      1
  4649  4646  4649      1
  4650  4646  4650      1
  4651  4646  4651      1
  4652  4651  4652      1
  4653  4651  4653      1
  4654  4651  4654      1
  4655  4652  4655      1
  4656  4652  4656      1
  4657  4652  4657      1
  4658  4657  4658      1
  4659  4657  4659      1
  4660  4657  4660      1
  4661  4658  4661      1
  4662  4658  4662      1
  4663  4658  4663      1
  4664  4663  4664      1
  4665  4663  4665      1
  4666  4663  4666      1
  4667  4664  4667      1
  4668  4664  4668      1
  4669  4664  4669      1
  4670  4669  4670      1
  4671  4669  4671      1
  4672  4669  4672      1
  4673  4670  4673      1
  4674  4670  4674      1
  4675  4670  4675      1
  4676  4675  4676      1
  4677  4675  4677      1
  4678  4675  4678      1
  4679  4676  4679      1
  4680  4676  4680      1
  4681  4676  4681      1
  4682  4681  4682      1
  4683  4681  4683      1
  4684  4681  4684      1
  4685  4682  4685      1
  4686  4682  4686      1
  4687  4682  4687      1
  4688  4687  4688      1
  4689  4687  4689      1
  4690  4687  4690      1
  4691  4688  4691      1
  4692  4688  4692      1
  4693  4688  4693      1
  4694  4693  4694      1
  4695  4693  4695      1
  4696  4693  4696      1
  4697  4694  4697      1
  4698  4694  4698      1
  4699  4694  4699      1
  4700  4699  4700      1
  4701  4699  4701      1
  4702  4699  4702      1
  4703  4700  4703      1
  4704  4700  4704      1
  4705  4700  4705      1
  4706  4705  4706      1
  4707  4705  4707      1
  4708  4705  4708      1
  4709  4706  4709      1
  4710  4706  4710      1
  4711  4706  4711      1
  4712  4711  4712      1
  4713  4711  4713      1
  4714  4711  4714      1
  4715  4712  4715      1
  4716  4712  4716      1
  4717  4712  4717      1
  4718  4717  4718      1
  4719  4717  4719      1
  4720  4717  4720      1
  4721  4718  4721      1
  4722  4718  4722      1
  4723  4718  4723      1
  4724  4723  4724      1
  4725  4723  4725      1
  4726  4723  4726      1
  4727  4724  4727      1
  4728  4724  4728      1
  4729  4724  4729      1
  4730  4729  4730      1
  4731  4729  4731      1
  4732  4729  4732      1
  4733  4730  4733      1
  4734  4730  4734      1
  4735  4730  4735      1
  4736  4735  4736      1
  4737  4735  4737      1
  4738  4735  4738      1
  4739  4736  4739      1
  4740  4736  4740      1
  4741  4736  4741      1
  4742  4741  4742      1
  4743  4741  4743      1
  4744  4741  4744      1
  4745  4742  4745      1
  4746  4742  4746      1
  4747  4742  4747      1
  4748  4747  4748      1
  4749  4747  4749      1
  4750  4747  4750      1
  4751  4748  4751      1
  4752  4748  4752      1
  4753  4748  4753      1
  4754  4753  4754      1
  4755  4753  4755      1
  4756  4753  4756      1
  4757  4754  4757      1
  4758  4754  4758      1
  4759  4754  4759      1
  4760  4759  4760      1
  4761  4759  4761      1
  4762  4759  4762      1
  4763  4760  4763      1
  4764  4760  4764      1
  4765  4760  4765      1
  4766  4765  4766      1
  4767  4765  4767      1
  4768  4765  4768      1
  4769  4766  4769      1
  4770  4766  4770      1
  4771  4766  4771      1
  4772  4771  4772      1
  4773  4771  4773      1
  4774  4771  4774      1
  4775  4772  4775      1
  4776  4772  4776      1
  4777  4772  4777      1
  4778  4777  4778      1
  4779  4777  4779      1
  4780  4777  4780      1
  4781  4778  4781      1
  4782  4778  4782      1
  4783  4778  4783      1
  4784  4783  4784      1
  4785  4783  4785      1
  4786  4783  4786      1
  4787  4784  4787      1
  4788  4784  4788      1
  4789  4784  4789      1
  4790  4789  4790      1
  4791  4789  4791      1
  4792  4789  4792      1
  4793  4790  4793      1
  4794  4790  4794      1
  4795  4790  4795      1
  4796  4795  4796      1
  4797  4795  4797      1
  4798  4795  4798      1
  4799  4796  4799      1
  4800  4796  4800      1
  4801  4796  4801      1
  4802  4801  4802      1
  4803  4801  4803      1
  4804  4801  4804      1
  4805  4802  4805      1
  4806  4802  4806      1
  4807  4802  4807      1
  4808  4807  4808      1
  4809  4807  4809      1
  4810  4807  4810      1
  4811  4808  4811      1
  4812  4808  4812      1
  4813  4808  4813      1
  4814  4813  4814      1
  4815  4813  4815      1
  4816  4813  4816      1
  4817  4814  4817      1
  4818  4814  4818      1
  4819  4814  4819      1
  4820  4819  4820      1
  4821  4819  4821      1
  4822  4819  4822      1
  4823  4820  4823      1
  4824  4820  4824      1
  4825  4820  4825      1
  4826  4825  4826      1
  4827  4825  4827      1
  4828  4825  4828      1
  4829  4826  4829      1
  4830  4826  4830      1
  4831  4826  4831      1
  4832  4831  4832      1
  4833  4831  4833      1
  4834  4831  4834      1
  4835  4832  4835      1
  4836  4832  4836      1
  4837  4832  4837      1
  4838  4837  4838      1
  4839  4837  4839      1
  4840  4837  4840      1
  4841  4838  4841      1
  4842  4838  4842      1
  4843  4838  4843      1
  4844  4843  4844      1
  4845  4843  4845      1
  4846  4843  4846      1
  4847  4844  4847      1
  4848  4844  4848      1
  4849  4844  4849      1
  4850  4849  4850      1
  4851  4849  4851      1
  4852  4849  4852      1
  4853  4850  4853      1
  4854  4850  4854      1
  4855  4850  4855      1
  4856  4855  4856      1
  4857  4855  4857      1
  4858  4855  4858      1
  4859  4856  4859      1
  4860  4856  4860      1
  4861  4856  4861      1
  4862  4861  4862      1
  4863  4861  4863      1
  4864  4861  4864      1
  4865  4862  4865      1
  4866  4862  4866      1
  4867  4862  4867      1
  4868  4867  4868      1
  4869  4867  4869      1
  4870  4867  4870      1
  4871  4868  4871      1
  4872  4868  4872      1
  4873  4868  4873      1
  4874  4873  4874      1
  4875  4873  4875      1
  4876  4873  4876      1
  4877  4874  4877      1
  4878  4874  4878      1
  4879  4874  4879      1
  4880  4879  4880      1
  4881  4879  4881      1
  4882  4879  4882      1
  4883  4880  4883      1
  4884  4880  4884      1
  4885  4880  4885      1
  4886  4885  4886      1
  4887  4885  4887      1
  4888  4885  4888      1
  4889  4886  4889      1
  4890  4886  4890      1
  4891  4886  4891      1
  4892  4891  4892      1
  4893  4891  4893      1
  4894  4891  4894      1
  4895  4892  4895      1
  4896  4892  4896      1
  4897  4892  4897      1
  4898  4897  4898      1
  4899  4897  4899      1
  4900  4897  4900      1
  4901  4898  4901      1
  4902  4898  4902      1
  4903  4898  4903      1
  4904  4903  4904      1
  4905  4903  4905      1
  4906  4903  4906      1
  4907  4904  4907      1
  4908  4904  4908      1
  4909  4904  4909      1
  4910  4909  4910      1
  4911  4909  4911      1
  4912  4909  4912      1
  4913  4910  4913      1
  4914  4910  4914      1
  4915  4910  4915      1
  4916  4915  4916      1
  4917  4915  4917      1
  4918  4915  4918      1
  4919  4916  4919      1
  4920  4916  4920      1
  4921  4916  4921      1
  4922  4921  4922      1
  4923  4921  4923      1
  4924  4921  4924      1
  4925  4922  4925      1
  4926  4922  4926      1
  4927  4922  4927      1
  4928  4927  4928      1
  4929  4927  4929      1
  4930  4927  4930      1
  4931  4928  4931      1
  4932  4928  4932      1
  4933  4928  4933      1
  4934  4933  4934      1
  4935  4933  4935      1
  4936  4933  4936      1
  4937  4934  4937      1
  4938  4934  4938      1
  4939  4934  4939      1
  4940  4939  4940      1
  4941  4939  4941      1
  4942  4939  4942      1
  4943  4940  4943      1
  4944  4940  4944      1
  4945  4940  4945      1
  4946  4945  4946      1
  4947  4945  4947      1
  4948  4945  4948      1
  4949  4946  4949      1
  4950  4946  4950      1
  4951  4946  4951      1
  4952  4951  4952      1
  4953  4951  4953      1
  4954  4951  4954      1
  4955  4952  4955      1
  4956  4952  4956      1
  4957  4952  4957      1
  4958  4957  4958      1
  4959  4957  4959      1
  4960  4957  4960      1
  4961  4958  4961      1
  4962  4958  4962      1
  4963  4958  4963      1
  4964  4963  4964      1
  4965  4963  4965      1
  4966  4963  4966      1
  4967  4964  4967      1
  4968  4964  4968      1
  4969  4964  4969      1
  4970  4969  4970      1
  4971  4969  4971      1
  4972  4969  4972      1
  4973  4970  4973      1
  4974  4970  4974      1
  4975  4970  4975      1
  4976  4975  4976      1
  4977  4975  4977      1
  4978  4975  4978      1
  4979  4976  4979      1
  4980  4976  4980      1
  4981  4976  4981      1
  4982  4981  4982      1
  4983  4981  4983      1
  4984  4981  4984      1
  4985  4982  4985      1
  4986  4982  4986      1
  4987  4982  4987      1
  4988  4987  4988      1
  4989  4987  4989      1
  4990  4987  4990      1
  4991  4988  4991      1
  4992  4988  4992      1
  4993  4988  4993      1
  4994  4993  4994      1
  4995  4993  4995      1
  4996  4993  4996      1
  4997  4994  4997      1
  4998  4994  4998      1
  4999  4994  4999      1
  5000  4999  5000      1
  5001  4999  5001      1
  5002  4999  5002      1
  5003  5000  5003      1
  5004  5000  5004      1
  5005  5000  5005      1
  5006  5005  5006      1
  5007  5005  5007      1
  5008  5005  5008      1
  5009  5006  5009      1
  5010  5006  5010      1
  5011  5006  5011      1
  5012  5011  5012      1
  5013  5011  5013      1
  5014  5011  5014      1
  5015  5012  5015      1
  5016  5012  5016      1
  5017  5012  5017      1
  5018  5017  5018      1
  5019  5017  5019      1
  5020  5017  5020      1
  5021  5018  5021      1
  5022  5018  5022      1
  5023  5018  5023      1
  5024  5023  5024      1
  5025  5023  5025      1
  5026  5023  5026      1
  5027  5024  5027      1
  5028  5024  5028      1
  5029  5024  5029      1
  5030  5029  5030      1
  5031  5029  5031      1
  5032  5029  5032      1
  5033  5030  5033      1
  5034  5030  5034      1
  5035  5030  5035      1
  5036  5035  5036      1
  5037  5035  5037      1
  5038  5035  5038      1
  5039  5036  5039      1
  5040  5036  5040      1
  5041  5036  5041      1
  5042  5041  5042      1
  5043  5041  5043      1
  5044  5041  5044      1
  5045  5042  5045      1
  5046  5042  5046      1
  5047  5042  5047      1
  5048  5047  5048      1
  5049  5047  5049      1
  5050  5047  5050      1
  5051  5048  5051      1
  5052  5048  5052      1
  5053  5048  5053      1
  5054  5053  5054      1
  5055  5053  5055      1
  5056  5053  5056      1
  5057  5054  5057      1
  5058  5054  5058      1
  5059  5054  5059      1
  5060  5059  5060      1
  5061  5059  5061      1
  5062  5059  5062      1
  5063  5060  5063      1
  5064  5060  5064      1
  5065  5060  5065      1
  5066  5065  5066      1
  5067  5065  5067      1
  5068  5065  5068      1
  5069  5066  5069      1
  5070  5066  5070      1
  5071  5066  5071      1
  5072  5071  5072      1
  5073  5071  5073      1
  5074  5071  5074      1
  5075  5072  5075      1
  5076  5072  5076      1
  5077  5072  5077      1
  5078  5077  5078      1
  5079  5077  5079      1
  5080  5077  5080      1
  5081  5078  5081      1
  5082  5078  5082      1
  5083  5078  5083      1
  5084  5083  5084      1
  5085  5083  5085      1
  5086  5083  5086      1
  5087  5084  5087      1
  5088  5084  5088      1
  5089  5084  5089      1
  5090  5089  5090      1
  5091  5089  5091      1
  5092  5089  5092      1
  5093  5090  5093      1
  5094  5090  5094      1
  5095  5090  5095      1
  5096  5095  5096      1
  5097  5095  5097      1
  5098  5095  5098      1
  5099  5096  5099      1
  5100  5096  5100      1
  5101  5096  5101      1
  5102  5101  5102      1
  5103  5101  5103      1
  5104  5101  5104      1
  5105  5102  5105      1
  5106  5102  5106      1
  5107  5102  5107      1
  5108  5107  5108      1
  5109  5107  5109      1
  5110  5107  5110      1
  5111  5108  5111      1
  5112  5108  5112      1
  5113  5108  5113      1
  5114  5113  5114      1
  5115  5113  5115      1
  5116  5113  5116      1
  5117  5114  5117      1
  5118  5114  5118      1
  5119  5114  5119      1
  5120  5119  5120      1
  5121  5119  5121      1
  5122  5119  5122      1
  5123  5120  5123      1
  5124  5120  5124      1
  5125  5120  5125      1
  5126  5125  5126      1
  5127  5125  5127      1
  5128  5125  5128      1
  5129  5126  5129      1
  5130  5126  5130      1
  5131  5126  5131      1
  5132  5131  5132      1
  5133  5131  5133      1
  5134  5131  5134      1
  5135  5132  5135      1
  5136  5132  5136      1
  5137  5132  5137      1
  5138  5137  5138      1
  5139  5137  5139      1
  5140  5137  5140      1
  5141  5138  5141      1
  5142  5138  5142      1
  5143  5138  5143      1
  5144  5143  5144      1
  5145  5143  5145      1
  5146  5143  5146      1
  5147  5144  5147      1
  5148  5144  5148      1
  5149  5144  5149      1
  5150  5149  5150      1
  5151  5149  5151      1
  5152  5149  5152      1
  5153  5150  5153      1
  5154  5150  5154      1
  5155  5150  5155      1
  5156  5155  5156      1
  5157  5155  5157      1
  5158  5155  5158      1
  5159  5156  5159      1
  5160  5156  5160      1
  5161  5156  5161      1
  5162  5161  5162      1
  5163  5161  5163      1
  5164  5161  5164      1
  5165  5162  5165      1
  5166  5162  5166      1
  5167  5162  5167      1
  5168  5167  5168      1
  5169  5167  5169      1
  5170  5167  5170      1
  5171  5168  5171      1
  5172  5168  5172      1
  5173  5168  5173      1
  5174  5173  5174      1
  5175  5173  5175      1
  5176  5173  5176      1
  5177  5174  5177      1
  5178  5174  5178      1
  5179  5174  5179      1
  5180  5179  5180      1
  5181  5179  5181      1
  5182  5179  5182      1
  5183  5180  5183      1
  5184  5180  5184      1
  5185  5180  5185      1
  5186  5185  5186      1
  5187  5185  5187      1
  5188  5185  5188      1
  5189  5186  5189      1
  5190  5186  5190      1
  5191  5186  5191      1
  5192  5191  5192      1
  5193  5191  5193      1
  5194  5191  5194      1
  5195  5192  5195      1
  5196  5192  5196      1
  5197  5192  5197      1
  5198  5197  5198      1
  5199  5197  5199      1
  5200  5197  5200      1
  5201  5198  5201      1
  5202  5198  5202      1
  5203  5198  5203      1
  5204  5203  5204      1
  5205  5203  5205      1
  5206  5203  5206      1
  5207  5204  5207      1
  5208  5204  5208      1
  5209  5204  5209      1
  5210  5209  5210      1
  5211  5209  5211      1
  5212  5209  5212      1
  5213  5210  5213      1
  5214  5210  5214      1
  5215  5210  5215      1
  5216  5215  5216      1
  5217  5215  5217      1
  5218  5215  5218      1
  5219  5216  5219      1
  5220  5216  5220      1
  5221  5216  5221      1
  5222  5221  5222      1
  5223  5221  5223      1
  5224  5221  5224      1
  5225  5222  5225      1
  5226  5222  5226      1
  5227  5222  5227      1
  5228  5227  5228      1
  5229  5227  5229      1
  5230  5227  5230      1
  5231  5228  5231      1
  5232  5228  5232      1
  5233  5228  5233      1
  5234  5233  5234      1
  5235  5233  5235      1
  5236  5233  5236      1
  5237  5234  5237      1
  5238  5234  5238      1
  5239  5234  5239      1
  5240  5239  5240      1
  5241  5239  5241      1
  5242  5239  5242      1
  5243  5240  5243      1
  5244  5240  5244      1
  5245  5240  5245      1
  5246  5245  5246      1
  5247  5245  5247      1
  5248  5245  5248      1
  5249  5246  5249      1
  5250  5246  5250      1
  5251  5246  5251      1
  5252  5251  5252      1
  5253  5251  5253      1
  5254  5251  5254      1
  5255  5252  5255      1
  5256  5252  5256      1
  5257  5252  5257      1
  5258  5257  5258      1
  5259  5257  5259      1
  5260  5257  5260      1
  5261  5258  5261      1
  5262  5258  5262      1
  5263  5258  5263      1
  5264  5263  5264      1
  5265  5263  5265      1
  5266  5263  5266      1
  5267  5264  5267      1
  5268  5264  5268      1
  5269  5264  5269      1
  5270  5269  5270      1
  5271  5269  5271      1
  5272  5269  5272      1
  5273  5270  5273      1
  5274  5270  5274      1
  5275  5270  5275      1
  5276  5275  5276      1
  5277  5275  5277      1
  5278  5275  5278      1
  5279  5276  5279      1
  5280  5276  5280      1
  5281  5276  5281      1
  5282  5281  5282      1
  5283  5281  5283      1
  5284  5281  5284      1
  5285  5282  5285      1
  5286  5282  5286      1
  5287  5282  5287      1
  5288  5287  5288      1
  5289  5287  5289      1
  5290  5287  5290      1
  5291  5288  5291      1
  5292  5288  5292      1
  5293  5288  5293      1
  5294  5293  5294      1
  5295  5293  5295      1
  5296  5293  5296      1
  5297  5294  5297      1
  5298  5294  5298      1
  5299  5294  5299      1
  5300  5299  5300      1
  5301  5299  5301      1
  5302  5299  5302      1
  5303  5300  5303      1
  5304  5300  5304      1
  5305  5300  5305      1
  5306  5305  5306      1
  5307  5305  5307      1
  5308  5305  5308      1
  5309  5306  5309      1
  5310  5306  5310      1
  5311  5306  5311      1
  5312  5311  5312      1
  5313  5311  5313      1
  5314  5311  5314      1
  5315  5312  5315      1
  5316  5312  5316      1
  5317  5312  5317      1
  5318  5317  5318      1
  5319  5317  5319      1
  5320  5317  5320      1
  5321  5318  5321      1
  5322  5318  5322      1
  5323  5318  5323      1
  5324  5323  5324      1
  5325  5323  5325      1
  5326  5323  5326      1
  5327  5324  5327      1
  5328  5324  5328      1
  5329  5324  5329      1
  5330  5329  5330      1
  5331  5329  5331      1
  5332  5329  5332      1
  5333  5330  5333      1
  5334  5330  5334      1
  5335  5330  5335      1
  5336  5335  5336      1
  5337  5335  5337      1
  5338  5335  5338      1
  5339  5336  5339      1
  5340  5336  5340      1
  5341  5336  5341      1
  5342  5341  5342      1
  5343  5341  5343      1
  5344  5341  5344      1
  5345  5342  5345      1
  5346  5342  5346      1
  5347  5342  5347      1
  5348  5347  5348      1
  5349  5347  5349      1
  5350  5347  5350      1
  5351  5348  5351      1
  5352  5348  5352      1
  5353  5348  5353      1
  5354  5353  5354      1
  5355  5353  5355      1
  5356  5353  5356      1
  5357  5354  5357      1
  5358  5354  5358      1
  5359  5354  5359      1
  5360  5359  5360      1
  5361  5359  5361      1
  5362  5359  5362      1
  5363  5360  5363      1
  5364  5360  5364      1
  5365  5360  5365      1
  5366  5365  5366      1
  5367  5365  5367      1
  5368  5365  5368      1
  5369  5366  5369      1
  5370  5366  5370      1
  5371  5366  5371      1
  5372  5371  5372      1
  5373  5371  5373      1
  5374  5371  5374      1
  5375  5372  5375      1
  5376  5372  5376      1
  5377  5372  5377      1
  5378  5377  5378      1
  5379  5377  5379      1
  5380  5377  5380      1
  5381  5378  5381      1
  5382  5378  5382      1
  5383  5378  5383      1
  5384  5383  5384      1
  5385  5383  5385      1
  5386  5383  5386      1
  5387  5384  5387      1
  5388  5384  5388      1
  5389  5384  5389      1
  5390  5389  5390      1
  5391  5389  5391      1
  5392  5389  5392      1
  5393  5390  5393      1
  5394  5390  5394      1
  5395  5390  5395      1
  5396  5395  5396      1
  5397  5395  5397      1
  5398  5395  5398      1
  5399  5396  5399      1
  5400  5396  5400      1
  5401  5396  5401      1
  5402  5401  5402      1
  5403  5401  5403      1
  5404  5401  5404      1
  5405  5402  5405      1
  5406  5402  5406      1
  5407  5402  5407      1
  5408  5407  5408      1
  5409  5407  5409      1
  5410  5407  5410      1
  5411  5408  5411      1
  5412  5408  5412      1
  5413  5408  5413      1
  5414  5413  5414      1
  5415  5413  5415      1
  5416  5413  5416      1
  5417  5414  5417      1
  5418  5414  5418      1
  5419  5414  5419      1
  5420  5419  5420      1
  5421  5419  5421      1
  5422  5419  5422      1
  5423  5420  5423      1
  5424  5420  5424      1
  5425  5420  5425      1
  5426  5425  5426      1
  5427  5425  5427      1
  5428  5425  5428      1
  5429  5426  5429      1
  5430  5426  5430      1
  5431  5426  5431      1
  5432  5431  5432      1
  5433  5431  5433      1
  5434  5431  5434      1
  5435  5432  5435      1
  5436  5432  5436      1
  5437  5432  5437      1
  5438  5437  5438      1
  5439  5437  5439      1
  5440  5437  5440      1
  5441  5438  5441      1
  5442  5438  5442      1
  5443  5438  5443      1
  5444  5443  5444      1
  5445  5443  5445      1
  5446  5443  5446      1
  5447  5444  5447      1
  5448  5444  5448      1
  5449  5444  5449      1
  5450  5449  5450      1
  5451  5449  5451      1
  5452  5449  5452      1
  5453  5450  5453      1
  5454  5450  5454      1
  5455  5450  5455      1
  5456  5455  5456      1
  5457  5455  5457      1
  5458  5455  5458      1
  5459  5456  5459      1
  5460  5456  5460      1
  5461  5456  5461      1
  5462  5461  5462      1
  5463  5461  5463      1
  5464  5461  5464      1
  5465  5462  5465      1
  5466  5462  5466      1
  5467  5462  5467      1
  5468  5467  5468      1
  5469  5467  5469      1
  5470  5467  5470      1
  5471  5468  5471      1
  5472  5468  5472      1
  5473  5468  5473      1
  5474  5473  5474      1
  5475  5473  5475      1
  5476  5473  5476      1
  5477  5474  5477      1
  5478  5474  5478      1
  5479  5474  5479      1
  5480  5479  5480      1
  5481  5479  5481      1
  5482  5479  5482      1
  5483  5480  5483      1
  5484  5480  5484      1
  5485  5480  5485      1
  5486  5485  5486      1
  5487  5485  5487      1
  5488  5485  5488      1
  5489  5486  5489      1
  5490  5486  5490      1
  5491  5486  5491      1
  5492  5491  5492      1
  5493  5491  5493      1
  5494  5491  5494      1
  5495  5492  5495      1
  5496  5492  5496      1
  5497  5492  5497      1
  5498  5497  5498      1
  5499  5497  5499      1
  5500  5497  5500      1
  5501  5498  5501      1
  5502  5498  5502      1
  5503  5498  5503      1
  5504  5503  5504      1
  5505  5503  5505      1
  5506  5503  5506      1
  5507  5504  5507      1
  5508  5504  5508      1
  5509  5504  5509      1
  5510  5509  5510      1
  5511  5509  5511      1
  5512  5509  5512      1
  5513  5510  5513      1
  5514  5510  5514      1
  5515  5510  5515      1
  5516  5515  5516      1
  5517  5515  5517      1
  5518  5515  5518      1
  5519  5516  5519      1
  5520  5516  5520      1
  5521  5516  5521      1
  5522  5521  5522      1
  5523  5521  5523      1
  5524  5521  5524      1
  5525  5522  5525      1
  5526  5522  5526      1
  5527  5522  5527      1
  5528  5527  5528      1
  5529  5527  5529      1
  5530  5527  5530      1
  5531  5528  5531      1
  5532  5528  5532      1
  5533  5528  5533      1
  5534  5533  5534      1
  5535  5533  5535      1
  5536  5533  5536      1
  5537  5534  5537      1
  5538  5534  5538      1
  5539  5534  5539      1
  5540  5539  5540      1
  5541  5539  5541      1
  5542  5539  5542      1
  5543  5540  5543      1
  5544  5540  5544      1
  5545  5540  5545      1
  5546  5545  5546      1
  5547  5545  5547      1
  5548  5545  5548      1
  5549  5546  5549      1
  5550  5546  5550      1
  5551  5546  5551      1
  5552  5551  5552      1
  5553  5551  5553      1
  5554  5551  5554      1
  5555  5552  5555      1
  5556  5552  5556      1
  5557  5552  5557      1
  5558  5557  5558      1
  5559  5557  5559      1
  5560  5557  5560      1
  5561  5558  5561      1
  5562  5558  5562      1
  5563  5558  5563      1
  5564  5563  5564      1
  5565  5563  5565      1
  5566  5563  5566      1
  5567  5564  5567      1
  5568  5564  5568      1
  5569  5564  5569      1
  5570  5569  5570      1
  5571  5569  5571      1
  5572  5569  5572      1
  5573  5570  5573      1
  5574  5570  5574      1
  5575  5570  5575      1
  5576  5575  5576      1
  5577  5575  5577      1
  5578  5575  5578      1
  5579  5576  5579      1
  5580  5576  5580      1
  5581  5576  5581      1
  5582  5581  5582      1
  5583  5581  5583      1
  5584  5581  5584      1
  5585  5582  5585      1
  5586  5582  5586      1
  5587  5582  5587      1
  5588  5587  5588      1
  5589  5587  5589      1
  5590  5587  5590      1
  5591  5588  5591      1
  5592  5588  5592      1
  5593  5588  5593      1
  5594  5593  5594      1
  5595  5593  5595      1
  5596  5593  5596      1
  5597  5594  5597      1
  5598  5594  5598      1
  5599  5594  5599      1
  5600  5599  5600      1
  5601  5599  5601      1
  5602  5599  5602      1
  5603  5600  5603      1
  5604  5600  5604      1
  5605  5600  5605      1
  5606  5605  5606      1
  5607  5605  5607      1
  5608  5605  5608      1
  5609  5606  5609      1
  5610  5606  5610      1
  5611  5606  5611      1
  5612  5611  5612      1
  5613  5611  5613      1
  5614  5611  5614      1
  5615  5612  5615      1
  5616  5612  5616      1
  5617  5612  5617      1
  5618  5617  5618      1
  5619  5617  5619      1
  5620  5617  5620      1
  5621  5618  5621      1
  5622  5618  5622      1
  5623  5618  5623      1
  5624  5623  5624      1
  5625  5623  5625      1
  5626  5623  5626      1
  5627  5624  5627      1
  5628  5624  5628      1
  5629  5624  5629      1
  5630  5629  5630      1
  5631  5629  5631      1
  5632  5629  5632      1
  5633  5630  5633      1
  5634  5630  5634      1
  5635  5630  5635      1
  5636  5635  5636      1
  5637  5635  5637      1
  5638  5635  5638      1
  5639  5636  5639      1
  5640  5636  5640      1
  5641  5636  5641      1
  5642  5641  5642      1
  5643  5641  5643      1
  5644  5641  5644      1
  5645  5642  5645      1
  5646  5642  5646      1
  5647  5642  5647      1
  5648  5647  5648      1
  5649  5647  5649      1
  5650  5647  5650      1
  5651  5648  5651      1
  5652  5648  5652      1
  5653  5648  5653      1
  5654  5653  5654      1
  5655  5653  5655      1
  5656  5653  5656      1
  5657  5654  5657      1
  5658  5654  5658      1
  5659  5654  5659      1
  5660  5659  5660      1
  5661  5659  5661      1
  5662  5659  5662      1
  5663  5660  5663      1
  5664  5660  5664      1
  5665  5660  5665      1
  5666  5665  5666      1
  5667  5665  5667      1
  5668  5665  5668      1
  5669  5666  5669      1
  5670  5666  5670      1
  5671  5666  5671      1
  5672  5671  5672      1
  5673  5671  5673      1
  5674  5671  5674      1
  5675  5672  5675      1
  5676  5672  5676      1
  5677  5672  5677      1
  5678  5677  5678      1
  5679  5677  5679      1
  5680  5677  5680      1
  5681  5678  5681      1
  5682  5678  5682      1
  5683  5678  5683      1
  5684  5683  5684      1
  5685  5683  5685      1
  5686  5683  5686      1
  5687  5684  5687      1
  5688  5684  5688      1
  5689  5684  5689      1
  5690  5689  5690      1
  5691  5689  5691      1
  5692  5689  5692      1
  5693  5690  5693      1
  5694  5690  5694      1
  5695  5690  5695      1
  5696  5695  5696      1
  5697  5695  5697      1
  5698  5695  5698      1
  5699  5696  5699      1
  5700  5696  5700      1
  5701  5696  5701      1
  5702  5701  5702      1
  5703  5701  5703      1
  5704  5701  5704      1
  5705  5702  5705      1
  5706  5702  5706      1
  5707  5702  5707      1
  5708  5707  5708      1
  5709  5707  5709      1
  5710  5707  5710      1
  5711  5708  5711      1
  5712  5708  5712      1
  5713  5708  5713      1
  5714  5713  5714      1
  5715  5713  5715      1
  5716  5713  5716      1
  5717  5714  5717      1
  5718  5714  5718      1
  5719  5714  5719      1
  5720  5719  5720      1
  5721  5719  5721      1
  5722  5719  5722      1
  5723  5720  5723      1
  5724  5720  5724      1
  5725  5720  5725      1
  5726  5725  5726      1
  5727  5725  5727      1
  5728  5725  5728      1
  5729  5726  5729      1
  5730  5726  5730      1
  5731  5726  5731      1
  5732  5731  5732      1
  5733  5731  5733      1
  5734  5731  5734      1
  5735  5732  5735      1
  5736  5732  5736      1
  5737  5732  5737      1
  5738  5737  5738      1
  5739  5737  5739      1
  5740  5737  5740      1
  5741  5738  5741      1
  5742  5738  5742      1
  5743  5738  5743      1
  5744  5743  5744      1
  5745  5743  5745      1
  5746  5743  5746      1
  5747  5744  5747      1
  5748  5744  5748      1
  5749  5744  5749      1
  5750  5749  5750      1
  5751  5749  5751      1
  5752  5749  5752      1
  5753  5750  5753      1
  5754  5750  5754      1
  5755  5750  5755      1
  5756  5755  5756      1
  5757  5755  5757      1
  5758  5755  5758      1
  5759  5756  5759      1
  5760  5756  5760      1
  5761  5756  5761      1
  5762  5761  5762      1
  5763  5761  5763      1
  5764  5761  5764      1
  5765  5762  5765      1
  5766  5762  5766      1
  5767  5762  5767      1
  5768  5767  5768      1
  5769  5767  5769      1
  5770  5767  5770      1
  5771  5768  5771      1
  5772  5768  5772      1
  5773  5768  5773      1
  5774  5773  5774      1
  5775  5773  5775      1
  5776  5773  5776      1
  5777  5774  5777      1
  5778  5774  5778      1
  5779  5774  5779      1
  5780  5779  5780      1
  5781  5779  5781      1
  5782  5779  5782      1
  5783  5780  5783      1
  5784  5780  5784      1
  5785  5780  5785      1
  5786  5785  5786      1
  5787  5785  5787      1
  5788  5785  5788      1
  5789  5786  5789      1
  5790  5786  5790      1
  5791  5786  5791      1
  5792  5791  5792      1
  5793  5791  5793      1
  5794  5791  5794      1
  5795  5792  5795      1
  5796  5792  5796      1
  5797  5792  5797      1
  5798  5797  5798      1
  5799  5797  5799      1
  5800  5797  5800      1
  5801  5798  5801      1
  5802  5798  5802      1
  5803  5798  5803      1
  5804  5803  5804      1
  5805  5803  5805      1
  5806  5803  5806      1
  5807  5804  5807      1
  5808  5804  5808      1
  5809  5804  5809      1
  5810  5809  5810      1
  5811  5809  5811      1
  5812  5809  5812      1
  5813  5810  5813      1
  5814  5810  5814      1
  5815  5810  5815      1
  5816  5815  5816      1
  5817  5815  5817      1
  5818  5815  5818      1
  5819  5816  5819      1
  5820  5816  5820      1
  5821  5816  5821      1
  5822  5821  5822      1
  5823  5821  5823      1
  5824  5821  5824      1
  5825  5822  5825      1
  5826  5822  5826      1
  5827  5822  5827      1
  5828  5827  5828      1
  5829  5827  5829      1
  5830  5827  5830      1
  5831  5828  5831      1
  5832  5828  5832      1
  5833  5828  5833      1
  5834  5833  5834      1
  5835  5833  5835      1
  5836  5833  5836      1
  5837  5834  5837      1
  5838  5834  5838      1
  5839  5834  5839      1
  5840  5839  5840      1
  5841  5839  5841      1
  5842  5839  5842      1
  5843  5840  5843      1
  5844  5840  5844      1
  5845  5840  5845      1
  5846  5845  5846      1
  5847  5845  5847      1
  5848  5845  5848      1
  5849  5846  5849      1
  5850  5846  5850      1
  5851  5846  5851      1
  5852  5851  5852      1
  5853  5851  5853      1
  5854  5851  5854      1
  5855  5852  5855      1
  5856  5852  5856      1
  5857  5852  5857      1
  5858  5857  5858      1
  5859  5857  5859      1
  5860  5857  5860      1
  5861  5858  5861      1
  5862  5858  5862      1
  5863  5858  5863      1
  5864  5863  5864      1
  5865  5863  5865      1
  5866  5863  5866      1
  5867  5864  5867      1
  5868  5864  5868      1
  5869  5864  5869      1
  5870  5869  5870      1
  5871  5869  5871      1
  5872  5869  5872      1
  5873  5870  5873      1
  5874  5870  5874      1
  5875  5870  5875      1
  5876  5875  5876      1
  5877  5875  5877      1
  5878  5875  5878      1
  5879  5876  5879      1
  5880  5876  5880      1
  5881  5876  5881      1
  5882  5881  5882      1
  5883  5881  5883      1
  5884  5881  5884      1
  5885  5882  5885      1
  5886  5882  5886      1
  5887  5882  5887      1
  5888  5887  5888      1
  5889  5887  5889      1
  5890  5887  5890      1
  5891  5888  5891      1
  5892  5888  5892      1
  5893  5888  5893      1
  5894  5893  5894      1
  5895  5893  5895      1
  5896  5893  5896      1
  5897  5894  5897      1
  5898  5894  5898      1
  5899  5894  5899      1
  5900  5899  5900      1
  5901  5899  5901      1
  5902  5899  5902      1
  5903  5900  5903      1
  5904  5900  5904      1
  5905  5900  5905      1
  5906  5905  5906      1
  5907  5905  5907      1
  5908  5905  5908      1
  5909  5906  5909      1
  5910  5906  5910      1
  5911  5906  5911      1
  5912  5911  5912      1
  5913  5911  5913      1
  5914  5911  5914      1
  5915  5912  5915      1
  5916  5912  5916      1
  5917  5912  5917      1
  5918  5917  5918      1
  5919  5917  5919      1
  5920  5917  5920      1
  5921  5918  5921      1
  5922  5918  5922      1
  5923  5918  5923      1
  5924  5923  5924      1
  5925  5923  5925      1
  5926  5923  5926      1
  5927  5924  5927      1
  5928  5924  5928      1
  5929  5924  5929      1
  5930  5929  5930      1
  5931  5929  5931      1
  5932  5929  5932      1
  5933  5930  5933      1
  5934  5930  5934      1
  5935  5930  5935      1
  5936  5935  5936      1
  5937  5935  5937      1
  5938  5935  5938      1
  5939  5936  5939      1
  5940  5936  5940      1
  5941  5936  5941      1
  5942  5941  5942      1
  5943  5941  5943      1
  5944  5941  5944      1
  5945  5942  5945      1
  5946  5942  5946      1
  5947  5942  5947      1
  5948  5947  5948      1
  5949  5947  5949      1
  5950  5947  5950      1
  5951  5948  5951      1
  5952  5948  5952      1
  5953  5948  5953      1
  5954  5953  5954      1
  5955  5953  5955      1
  5956  5953  5956      1
  5957  5954  5957      1
  5958  5954  5958      1
  5959  5954  5959      1
  5960  5959  5960      1
  5961  5959  5961      1
  5962  5959  5962      1
  5963  5960  5963      1
  5964  5960  5964      1
  5965  5960  5965      1
  5966  5965  5966      1
  5967  5965  5967      1
  5968  5965  5968      1
  5969  5966  5969      1
  5970  5966  5970      1
  5971  5966  5971      1
  5972  5971  5972      1
  5973  5971  5973      1
  5974  5971  5974      1
  5975  5972  5975      1
  5976  5972  5976      1
  5977  5972  5977      1
  5978  5977  5978      1
  5979  5977  5979      1
  5980  5977  5980      1
  5981  5978  5981      1
  5982  5978  5982      1
  5983  5978  5983      1
  5984  5983  5984      1
  5985  5983  5985      1
  5986  5983  5986      1
  5987  5984  5987      1
  5988  5984  5988      1
  5989  5984  5989      1
  5990  5989  5990      1
  5991  5989  5991      1
  5992  5989  5992      1
  5993  5990  5993      1
  5994  5990  5994      1
  5995  5990  5995      1
  5996  5995  5996      1
  5997  5995  5997      1
  5998  5995  5998      1
  5999  5996  5999      1
  6000  5996  6000      1
  6001  5996  6001      1
  6002  6001  6002      1
  6003  6001  6003      1
  6004  6001  6004      1
  6005  6002  6005      1
  6006  6002  6006      1
  6007  6002  6007      1
  6008  6007  6008      1
  6009  6007  6009      1
  6010  6007  6010      1
  6011  6008  6011      1
  6012  6008  6012      1
  6013  6008  6013      1
  6014  6013  6014      1
  6015  6013  6015      1
  6016  6013  6016      1
  6017  6014  6017      1
  6018  6014  6018      1
  6019  6014  6019      1
  6020  6019  6020      1
  6021  6019  6021      1
  6022  6019  6022      1
  6023  6020  6023      1
  6024  6020  6024      1
  6025  6020  6025      1
  6026  6025  6026      1
  6027  6025  6027      1
  6028  6025  6028      1
  6029  6026  6029      1
  6030  6026  6030      1
  6031  6026  6031      1
  6032  6031  6032      1
  6033  6031  6033      1
  6034  6031  6034      1
  6035  6032  6035      1
  6036  6032  6036      1
  6037  6032  6037      1
  6038  6037  6038      1
  6039  6037  6039      1
  6040  6037  6040      1
  6041  6038  6041      1
  6042  6038  6042      1
  6043  6038  6043      1
  6044  6043  6044      1
  6045  6043  6045      1
  6046  6043  6046      1
  6047  6044  6047      1
  6048  6044  6048      1
  6049  6044  6049      1
  6050  6049  6050      1
  6051  6049  6051      1
  6052  6049  6052      1
  6053  6050  6053      1
  6054  6050  6054      1
  6055  6050  6055      1
  6056  6055  6056      1
  6057  6055  6057      1
  6058  6055  6058      1
  6059  6056  6059      1
  6060  6056  6060      1
  6061  6056  6061      1
  6062  6061  6062      1
  6063  6061  6063      1
  6064  6061  6064      1
  6065  6062  6065      1
  6066  6062  6066      1
  6067  6062  6067      1
  6068  6067  6068      1
  6069  6067  6069      1
  6070  6067  6070      1
  6071  6068  6071      1
  6072  6068  6072      1
  6073  6068  6073      1
  6074  6073  6074      1
  6075  6073  6075      1
  6076  6073  6076      1
  6077  6074  6077      1
  6078  6074  6078      1
  6079  6074  6079      1
  6080  6079  6080      1
  6081  6079  6081      1
  6082  6079  6082      1
  6083  6080  6083      1
  6084  6080  6084      1
  6085  6080  6085      1
  6086  6085  6086      1
  6087  6085  6087      1
  6088  6085  6088      1
  6089  6086  6089      1
  6090  6086  6090      1
  6091  6086  6091      1
  6092  6091  6092      1
  6093  6091  6093      1
  6094  6091  6094      1
  6095  6092  6095      1
  6096  6092  6096      1
  6097  6092  6097      1
  6098  6097  6098      1
  6099  6097  6099      1
  6100  6097  6100      1
  6101  6098  6101      1
  6102  6098  6102      1
  6103  6098  6103      1
  6104  6103  6104      1
  6105  6103  6105      1
  6106  6103  6106      1
  6107  6104  6107      1
  6108  6104  6108      1
  6109  6104  6109      1
  6110  6109  6110      1
  6111  6109  6111      1
  6112  6109  6112      1
  6113  6110  6113      1
  6114  6110  6114      1
  6115  6110  6115      1
  6116  6115  6116      1
  6117  6115  6117      1
  6118  6115  6118      1
  6119  6116  6119      1
  6120  6116  6120      1
  6121  6116  6121      1
  6122  6121  6122      1
  6123  6121  6123      1
  6124  6121  6124      1
  6125  6122  6125      1
  6126  6122  6126      1
  6127  6122  6127      1
  6128  6127  6128      1
  6129  6127  6129      1
  6130  6127  6130      1
  6131  6128  6131      1
  6132  6128  6132      1
  6133  6128  6133      1
  6134  6133  6134      1
  6135  6133  6135      1
  6136  6133  6136      1
  6137  6134  6137      1
  6138  6134  6138      1
  6139  6134  6139      1
  6140  6139  6140      1
  6141  6139  6141      1
  6142  6139  6142      1
  6143  6140  6143      1
  6144  6140  6144      1
  6145  6140  6145      1
  6146  6145  6146      1
  6147  6145  6147      1
  6148  6145  6148      1
  6149  6146  6149      1
  6150  6146  6150      1
  6151  6146  6151      1
  6152  6151  6152      1
  6153  6151  6153      1
  6154  6151  6154      1
  6155  6152  6155      1
  6156  6152  6156      1
  6157  6152  6157      1
  6158  6157  6158      1
  6159  6157  6159      1
  6160  6157  6160      1
  6161  6158  6161      1
  6162  6158  6162      1
  6163  6158  6163      1
  6164  6163  6164      1
  6165  6163  6165      1
  6166  6163  6166      1
  6167  6164  6167      1
  6168  6164  6168      1
  6169  6164  6169      1
  6170  6169  6170      1
  6171  6169  6171      1
  6172  6169  6172      1
  6173  6170  6173      1
  6174  6170  6174      1
  6175  6170  6175      1
  6176  6175  6176      1
  6177  6175  6177      1
  6178  6175  6178      1
  6179  6176  6179      1
  6180  6176  6180      1
  6181  6176  6181      1
  6182  6181  6182      1
  6183  6181  6183      1
  6184  6181  6184      1
  6185  6182  6185      1
  6186  6182  6186      1
  6187  6182  6187      1
  6188  6187  6188      1
  6189  6187  6189      1
  6190  6187  6190      1
  6191  6188  6191      1
  6192  6188  6192      1
  6193  6188  6193      1
  6194  6193  6194      1
  6195  6193  6195      1
  6196  6193  6196      1
  6197  6194  6197      1
  6198  6194  6198      1
  6199  6194  6199      1
  6200  6199  6200      1
  6201  6199  6201      1
  6202  6199  6202      1
  6203  6200  6203      1
  6204  6200  6204      1
  6205  6200  6205      1
  6206  6205  6206      1
  6207  6205  6207      1
  6208  6205  6208      1
  6209  6206  6209      1
  6210  6206  6210      1
  6211  6206  6211      1
  6212  6211  6212      1
  6213  6211  6213      1
  6214  6211  6214      1
  6215  6212  6215      1
  6216  6212  6216      1
  6217  6212  6217      1
  6218  6217  6218      1
  6219  6217  6219      1
  6220  6217  6220      1
  6221  6218  6221      1
  6222  6218  6222      1
  6223  6218  6223      1
  6224  6223  6224      1
  6225  6223  6225      1
  6226  6223  6226      1
  6227  6224  6227      1
  6228  6224  6228      1
  6229  6224  6229      1
  6230  6229  6230      1
  6231  6229  6231      1
  6232  6229  6232      1
  6233  6230  6233      1
  6234  6230  6234      1
  6235  6230  6235      1
  6236  6235  6236      1
  6237  6235  6237      1
  6238  6235  6238      1
  6239  6236  6239      1
  6240  6236  6240      1
  6241  6236  6241      1
  6242  6241  6242      1
  6243  6241  6243      1
  6244  6241  6244      1
  6245  6242  6245      1
  6246  6242  6246      1
  6247  6242  6247      1
  6248  6247  6248      1
  6249  6247  6249      1
  6250  6247  6250      1
  6251  6248  6251      1
  6252  6248  6252      1
  6253  6248  6253      1
  6254  6253  6254      1
  6255  6253  6255      1
  6256  6253  6256      1
  6257  6254  6257      1
  6258  6254  6258      1
  6259  6254  6259      1
  6260  6259  6260      1
  6261  6259  6261      1
  6262  6259  6262      1
  6263  6260  6263      1
  6264  6260  6264      1
  6265  6260  6265      1
  6266  6265  6266      1
  6267  6265  6267      1
  6268  6265  6268      1
  6269  6266  6269      1
  6270  6266  6270      1
  6271  6266  6271      1
  6272  6271  6272      1
  6273  6271  6273      1
  6274  6271  6274      1
  6275  6272  6275      1
  6276  6272  6276      1
  6277  6272  6277      1
  6278  6277  6278      1
  6279  6277  6279      1
  6280  6277  6280      1
  6281  6278  6281      1
  6282  6278  6282      1
  6283  6278  6283      1
  6284  6283  6284      1
  6285  6283  6285      1
  6286  6283  6286      1
  6287  6284  6287      1
  6288  6284  6288      1
  6289  6284  6289      1
  6290  6289  6290      1
  6291  6289  6291      1
  6292  6289  6292      1
  6293  6290  6293      1
  6294  6290  6294      1
  6295  6290  6295      1
  6296  6295  6296      1
  6297  6295  6297      1
  6298  6295  6298      1
  6299  6296  6299      1
  6300  6296  6300      1
  6301  6296  6301      1
  6302  6301  6302      1
  6303  6301  6303      1
  6304  6301  6304      1
  6305  6302  6305      1
  6306  6302  6306      1
  6307  6302  6307      1
  6308  6307  6308      1
  6309  6307  6309      1
  6310  6307  6310      1
  6311  6308  6311      1
  6312  6308  6312      1
  6313  6308  6313      1
  6314  6313  6314      1
  6315  6313  6315      1
  6316  6313  6316      1
  6317  6314  6317      1
  6318  6314  6318      1
  6319  6314  6319      1
  6320  6319  6320      1
  6321  6319  6321      1
  6322  6319  6322      1
  6323  6320  6323      1
  6324  6320  6324      1
  6325  6320  6325      1
  6326  6325  6326      1
  6327  6325  6327      1
  6328  6325  6328      1
  6329  6326  6329      1
  6330  6326  6330      1
  6331  6326  6331      1
  6332  6331  6332      1
  6333  6331  6333      1
  6334  6331  6334      1
  6335  6332  6335      1
  6336  6332  6336      1
  6337  6332  6337      1
  6338  6337  6338      1
  6339  6337  6339      1
  6340  6337  6340      1
  6341  6338  6341      1
  6342  6338  6342      1
  6343  6338  6343      1
  6344  6343  6344      1
  6345  6343  6345      1
  6346  6343  6346      1
  6347  6344  6347      1
  6348  6344  6348      1
  6349  6344  6349      1
  6350  6349  6350      1
  6351  6349  6351      1
  6352  6349  6352      1
  6353  6350  6353      1
  6354  6350  6354      1
  6355  6350  6355      1
  6356  6355  6356      1
  6357  6355  6357      1
  6358  6355  6358      1
  6359  6356  6359      1
  6360  6356  6360      1
  6361  6356  6361      1
  6362  6361  6362      1
  6363  6361  6363      1
  6364  6361  6364      1
  6365  6362  6365      1
  6366  6362  6366      1
  6367  6362  6367      1
  6368  6367  6368      1
  6369  6367  6369      1
  6370  6367  6370      1
  6371  6368  6371      1
  6372  6368  6372      1
  6373  6368  6373      1
  6374  6373  6374      1
  6375  6373  6375      1
  6376  6373  6376      1
  6377  6374  6377      1
  6378  6374  6378      1
  6379  6374  6379      1
  6380  6379  6380      1
  6381  6379  6381      1
  6382  6379  6382      1
  6383  6380  6383      1
  6384  6380  6384      1
  6385  6380  6385      1
  6386  6385  6386      1
  6387  6385  6387      1
  6388  6385  6388      1
  6389  6386  6389      1
  6390  6386  6390      1
  6391  6386  6391      1
  6392  6391  6392      1
  6393  6391  6393      1
  6394  6391  6394      1
  6395  6392  6395      1
  6396  6392  6396      1
  6397  6392  6397      1
  6398  6397  6398      1
  6399  6397  6399      1
  6400  6397  6400      1
  6401  6398  6401      1
  6402  6398  6402      1
  6403  6398  6403      1
  6404  6403  6404      1
  6405  6403  6405      1
  6406  6403  6406      1
  6407  6404  6407      1
  6408  6404  6408      1
  6409  6404  6409      1
  6410  6409  6410      1
  6411  6409  6411      1
  6412  6409  6412      1
  6413  6410  6413      1
  6414  6410  6414      1
  6415  6410  6415      1
  6416  6415  6416      1
  6417  6415  6417      1
  6418  6415  6418      1
  6419  6416  6419      1
  6420  6416  6420      1
  6421  6416  6421      1
  6422  6421  6422      1
  6423  6421  6423      1
  6424  6421  6424      1
  6425  6422  6425      1
  6426  6422  6426      1
  6427  6422  6427      1
  6428  6427  6428      1
  6429  6427  6429      1
  6430  6427  6430      1
  6431  6428  6431      1
  6432  6428  6432      1
  6433  6428  6433      1
  6434  6433  6434      1
  6435  6433  6435      1
  6436  6433  6436      1
  6437  6434  6437      1
  6438  6434  6438      1
  6439  6434  6439      1
  6440  6439  6440      1
  6441  6439  6441      1
  6442  6439  6442      1
  6443  6440  6443      1
  6444  6440  6444      1
  6445  6440  6445      1
  6446  6445  6446      1
  6447  6445  6447      1
  6448  6445  6448      1
  6449  6446  6449      1
  6450  6446  6450      1
  6451  6446  6451      1
  6452  6451  6452      1
  6453  6451  6453      1
  6454  6451  6454      1
  6455  6452  6455      1
  6456  6452  6456      1
  6457  6452  6457      1
  6458  6457  6458      1
  6459  6457  6459      1
  6460  6457  6460      1
  6461  6458  6461      1
  6462  6458  6462      1
  6463  6458  6463      1
  6464  6463  6464      1
  6465  6463  6465      1
  6466  6463  6466      1
  6467  6464  6467      1
  6468  6464  6468      1
  6469  6464  6469      1
  6470  6469  6470      1
  6471  6469  6471      1
  6472  6469  6472      1
  6473  6470  6473      1
  6474  6470  6474      1
  6475  6470  6475      1
  6476  6475  6476      1
  6477  6475  6477      1
  6478  6475  6478      1
  6479  6476  6479      1
  6480  6476  6480      1
  6481  6476  6481      1
  6482  6481  6482      1
  6483  6481  6483      1
  6484  6481  6484      1
  6485  6482  6485      1
  6486  6482  6486      1
  6487  6482  6487      1
  6488  6487  6488      1
  6489  6487  6489      1
  6490  6487  6490      1
  6491  6488  6491      1
  6492  6488  6492      1
  6493  6488  6493      1
  6494  6493  6494      1
  6495  6493  6495      1
  6496  6493  6496      1
  6497  6494  6497      1
  6498  6494  6498      1
  6499  6494  6499      1
  6500  6499  6500      1
  6501  6499  6501      1
  6502  6499  6502      1
  6503  6500  6503      1
  6504  6500  6504      1
  6505  6500  6505      1
  6506  6505  6506      1
  6507  6505  6507      1
  6508  6505  6508      1
  6509  6506  6509      1
  6510  6506  6510      1
  6511  6506  6511      1
  6512  6511  6512      1
  6513  6511  6513      1
  6514  6511  6514      1
  6515  6512  6515      1
  6516  6512  6516      1
  6517  6512  6517      1
  6518  6517  6518      1
  6519  6517  6519      1
  6520  6517  6520      1
  6521  6518  6521      1
  6522  6518  6522      1
  6523  6518  6523      1
  6524  6523  6524      1
  6525  6523  6525      1
  6526  6523  6526      1
  6527  6524  6527      1
  6528  6524  6528      1
  6529  6524  6529      1
  6530  6529  6530      1
  6531  6529  6531      1
  6532  6529  6532      1
  6533  6530  6533      1
  6534  6530  6534      1
  6535  6530  6535      1
  6536  6535  6536      1
  6537  6535  6537      1
  6538  6535  6538      1
  6539  6536  6539      1
  6540  6536  6540      1
  6541  6536  6541      1
  6542  6541  6542      1
  6543  6541  6543      1
  6544  6541  6544      1
  6545  6542  6545      1
  6546  6542  6546      1
  6547  6542  6547      1
  6548  6547  6548      1
  6549  6547  6549      1
  6550  6547  6550      1
  6551  6548  6551      1
  6552  6548  6552      1
  6553  6548  6553      1
  6554  6553  6554      1
  6555  6553  6555      1
  6556  6553  6556      1
  6557  6554  6557      1
  6558  6554  6558      1
  6559  6554  6559      1
  6560  6559  6560      1
  6561  6559  6561      1
  6562  6559  6562      1
  6563  6560  6563      1
  6564  6560  6564      1
  6565  6560  6565      1
  6566  6565  6566      1
  6567  6565  6567      1
  6568  6565  6568      1
  6569  6566  6569      1
  6570  6566  6570      1
  6571  6566  6571      1
  6572  6571  6572      1
  6573  6571  6573      1
  6574  6571  6574      1
  6575  6572  6575      1
  6576  6572  6576      1
  6577  6572  6577      1
  6578  6577  6578      1
  6579  6577  6579      1
  6580  6577  6580      1
  6581  6578  6581      1
  6582  6578  6582      1
  6583  6578  6583      1
  6584  6583  6584      1
  6585  6583  6585      1
  6586  6583  6586      1
  6587  6584  6587      1
  6588  6584  6588      1
  6589  6584  6589      1
  6590  6589  6590      1
  6591  6589  6591      1
  6592  6589  6592      1
  6593  6590  6593      1
  6594  6590  6594      1
  6595  6590  6595      1
  6596  6595  6596      1
  6597  6595  6597      1
  6598  6595  6598      1
  6599  6596  6599      1
  6600  6596  6600      1
  6601  6596  6601      1
  6602  6601  6602      1
  6603  6601  6603      1
  6604  6601  6604      1
  6605  6602  6605      1
  6606  6602  6606      1
  6607  6602  6607      1
  6608  6607  6608      1
  6609  6607  6609      1
  6610  6607  6610      1
  6611  6608  6611      1
  6612  6608  6612      1
  6613  6608  6613      1
  6614  6613  6614      1
  6615  6613  6615      1
  6616  6613  6616      1
  6617  6614  6617      1
  6618  6614  6618      1
  6619  6614  6619      1
  6620  6619  6620      1
  6621  6619  6621      1
  6622  6619  6622      1
  6623  6620  6623      1
  6624  6620  6624      1
  6625  6620  6625      1
  6626  6625  6626      1
  6627  6625  6627      1
  6628  6625  6628      1
  6629  6626  6629      1
  6630  6626  6630      1
  6631  6626  6631      1
  6632  6631  6632      1
  6633  6631  6633      1
  6634  6631  6634      1
  6635  6632  6635      1
  6636  6632  6636      1
  6637  6632  6637      1
  6638  6637  6638      1
  6639  6637  6639      1
  6640  6637  6640      1
  6641  6638  6641      1
  6642  6638  6642      1
  6643  6638  6643      1
  6644  6643  6644      1
  6645  6643  6645      1
  6646  6643  6646      1
  6647  6644  6647      1
  6648  6644  6648      1
  6649  6644  6649      1
  6650  6649  6650      1
  6651  6649  6651      1
  6652  6649  6652      1
  6653  6650  6653      1
  6654  6650  6654      1
  6655  6650  6655      1
  6656  6655  6656      1
  6657  6655  6657      1
  6658  6655  6658      1
  6659  6656  6659      1
  6660  6656  6660      1
  6661  6656  6661      1
  6662  6661  6662      1
  6663  6661  6663      1
  6664  6661  6664      1
  6665  6662  6665      1
  6666  6662  6666      1
  6667  6662  6667      1
  6668  6667  6668      1
  6669  6667  6669      1
  6670  6667  6670      1
  6671  6668  6671      1
  6672  6668  6672      1
  6673  6668  6673      1
  6674  6673  6674      1
  6675  6673  6675      1
  6676  6673  6676      1
  6677  6674  6677      1
  6678  6674  6678      1
  6679  6674  6679      1
  6680  6679  6680      1
  6681  6679  6681      1
  6682  6679  6682      1
  6683  6680  6683      1
  6684  6680  6684      1
  6685  6680  6685      1
  6686  6685  6686      1
  6687  6685  6687      1
  6688  6685  6688      1
  6689  6686  6689      1
  6690  6686  6690      1
  6691  6686  6691      1
  6692  6691  6692      1
  6693  6691  6693      1
  6694  6691  6694      1
  6695  6692  6695      1
  6696  6692  6696      1
  6697  6692  6697      1
  6698  6697  6698      1
  6699  6697  6699      1
  6700  6697  6700      1
  6701  6698  6701      1
  6702  6698  6702      1
  6703  6698  6703      1
  6704  6703  6704      1
  6705  6703  6705      1
  6706  6703  6706      1
  6707  6704  6707      1
  6708  6704  6708      1
  6709  6704  6709      1
  6710  6709  6710      1
  6711  6709  6711      1
  6712  6709  6712      1
  6713  6710  6713      1
  6714  6710  6714      1
  6715  6710  6715      1
  6716  6715  6716      1
  6717  6715  6717      1
  6718  6715  6718      1
  6719  6716  6719      1
  6720  6716  6720      1
  6721  6716  6721      1
  6722  6721  6722      1
  6723  6721  6723      1
  6724  6721  6724      1
  6725  6722  6725      1
  6726  6722  6726      1
  6727  6722  6727      1
  6728  6727  6728      1
  6729  6727  6729      1
  6730  6727  6730      1
  6731  6728  6731      1
  6732  6728  6732      1
  6733  6728  6733      1
  6734  6733  6734      1
  6735  6733  6735      1
  6736  6733  6736      1
  6737  6734  6737      1
  6738  6734  6738      1
  6739  6734  6739      1
  6740  6739  6740      1
  6741  6739  6741      1
  6742  6739  6742      1
  6743  6740  6743      1
  6744  6740  6744      1
  6745  6740  6745      1
  6746  6745  6746      1
  6747  6745  6747      1
  6748  6745  6748      1
  6749  6746  6749      1
  6750  6746  6750      1
  6751  6746  6751      1
  6752  6751  6752      1
  6753  6751  6753      1
  6754  6751  6754      1
  6755  6752  6755      1
  6756  6752  6756      1
  6757  6752  6757      1
  6758  6757  6758      1
  6759  6757  6759      1
  6760  6757  6760      1
  6761  6758  6761      1
  6762  6758  6762      1
  6763  6758  6763      1
  6764  6763  6764      1
  6765  6763  6765      1
  6766  6763  6766      1
  6767  6764  6767      1
  6768  6764  6768      1
  6769  6764  6769      1
  6770  6769  6770      1
  6771  6769  6771      1
  6772  6769  6772      1
  6773  6770  6773      1
  6774  6770  6774      1
  6775  6770  6775      1
  6776  6775  6776      1
  6777  6775  6777      1
  6778  6775  6778      1
  6779  6776  6779      1
  6780  6776  6780      1
  6781  6776  6781      1
  6782  6781  6782      1
  6783  6781  6783      1
  6784  6781  6784      1
  6785  6782  6785      1
  6786  6782  6786      1
  6787  6782  6787      1
  6788  6787  6788      1
  6789  6787  6789      1
  6790  6787  6790      1
  6791  6788  6791      1
  6792  6788  6792      1
  6793  6788  6793      1
  6794  6793  6794      1
  6795  6793  6795      1
  6796  6793  6796      1
  6797  6794  6797      1
  6798  6794  6798      1
  6799  6794  6799      1
  6800  6799  6800      1
  6801  6799  6801      1
  6802  6799  6802      1
  6803  6800  6803      1
  6804  6800  6804      1
  6805  6800  6805      1
  6806  6805  6806      1
  6807  6805  6807      1
  6808  6805  6808      1
  6809  6806  6809      1
  6810  6806  6810      1
  6811  6806  6811      1
  6812  6811  6812      1
  6813  6811  6813      1
  6814  6811  6814      1
  6815  6812  6815      1
  6816  6812  6816      1
  6817  6812  6817      1
  6818  6817  6818      1
  6819  6817  6819      1
  6820  6817  6820      1
  6821  6818  6821      1
  6822  6818  6822      1
  6823  6818  6823      1
  6824  6823  6824      1
  6825  6823  6825      1
  6826  6823  6826      1
  6827  6824  6827      1
  6828  6824  6828      1
  6829  6824  6829      1
  6830  6829  6830      1
  6831  6829  6831      1
  6832  6829  6832      1
  6833  6830  6833      1
  6834  6830  6834      1
  6835  6830  6835      1
  6836  6835  6836      1
  6837  6835  6837      1
  6838  6835  6838      1
  6839  6836  6839      1
  6840  6836  6840      1
  6841  6836  6841      1
  6842  6841  6842      1
  6843  6841  6843      1
  6844  6841  6844      1
  6845  6842  6845      1
  6846  6842  6846      1
  6847  6842  6847      1
  6848  6847  6848      1
  6849  6847  6849      1
  6850  6847  6850      1
  6851  6848  6851      1
  6852  6848  6852      1
  6853  6848  6853      1
  6854  6853  6854      1
  6855  6853  6855      1
  6856  6853  6856      1
  6857  6854  6857      1
  6858  6854  6858      1
  6859  6854  6859      1
  6860  6859  6860      1
  6861  6859  6861      1
  6862  6859  6862      1
  6863  6860  6863      1
  6864  6860  6864      1
  6865  6860  6865      1
  6866  6865  6866      1
  6867  6865  6867      1
  6868  6865  6868      1
  6869  6866  6869      1
  6870  6866  6870      1
  6871  6866  6871      1
  6872  6871  6872      1
  6873  6871  6873      1
  6874  6871  6874      1
  6875  6872  6875      1
  6876  6872  6876      1
  6877  6872  6877      1
  6878  6877  6878      1
  6879  6877  6879      1
  6880  6877  6880      1
  6881  6878  6881      1
  6882  6878  6882      1
  6883  6878  6883      1
  6884  6883  6884      1
  6885  6883  6885      1
  6886  6883  6886      1
  6887  6884  6887      1
  6888  6884  6888      1
  6889  6884  6889      1
  6890  6889  6890      1
  6891  6889  6891      1
  6892  6889  6892      1
  6893  6890  6893      1
  6894  6890  6894      1
  6895  6890  6895      1
  6896  6895  6896      1
  6897  6895  6897      1
  6898  6895  6898      1
  6899  6896  6899      1
  6900  6896  6900      1
  6901  6896  6901      1
  6902  6901  6902      1
  6903  6901  6903      1
  6904  6901  6904      1
  6905  6902  6905      1
  6906  6902  6906      1
  6907  6902  6907      1
  6908  6907  6908      1
  6909  6907  6909      1
  6910  6907  6910      1
  6911  6908  6911      1
  6912  6908  6912      1
  6913  6908  6913      1
  6914  6913  6914      1
  6915  6913  6915      1
  6916  6913  6916      1
  6917  6914  6917      1
  6918  6914  6918      1
  6919  6914  6919      1
  6920  6919  6920      1
  6921  6919  6921      1
  6922  6919  6922      1
  6923  6920  6923      1
  6924  6920  6924      1
  6925  6920  6925      1
  6926  6925  6926      1
  6927  6925  6927      1
  6928  6925  6928      1
  6929  6926  6929      1
  6930  6926  6930      1
  6931  6926  6931      1
  6932  6931  6932      1
  6933  6931  6933      1
  6934  6931  6934      1
  6935  6932  6935      1
  6936  6932  6936      1
  6937  6932  6937      1
  6938  6937  6938      1
  6939  6937  6939      1
  6940  6937  6940      1
  6941  6938  6941      1
  6942  6938  6942      1
  6943  6938  6943      1
  6944  6943  6944      1
  6945  6943  6945      1
  6946  6943  6946      1
  6947  6944  6947      1
  6948  6944  6948      1
  6949  6944  6949      1
  6950  6949  6950      1
  6951  6949  6951      1
  6952  6949  6952      1
  6953  6950  6953      1
  6954  6950  6954      1
  6955  6950  6955      1
  6956  6955  6956      1
  6957  6955  6957      1
  6958  6955  6958      1
  6959  6956  6959      1
  6960  6956  6960      1
  6961  6956  6961      1
  6962  6961  6962      1
  6963  6961  6963      1
  6964  6961  6964      1
  6965  6962  6965      1
  6966  6962  6966      1
  6967  6962  6967      1
  6968  6967  6968      1
  6969  6967  6969      1
  6970  6967  6970      1
  6971  6968  6971      1
  6972  6968  6972      1
  6973  6968  6973      1
  6974  6973  6974      1
  6975  6973  6975      1
  6976  6973  6976      1
  6977  6974  6977      1
  6978  6974  6978      1
  6979  6974  6979      1
  6980  6979  6980      1
  6981  6979  6981      1
  6982  6979  6982      1
  6983  6980  6983      1
  6984  6980  6984      1
  6985  6980  6985      1
  6986  6985  6986      1
  6987  6985  6987      1
  6988  6985  6988      1
  6989  6986  6989      1
  6990  6986  6990      1
  6991  6986  6991      1
  6992  6991  6992      1
  6993  6991  6993      1
  6994  6991  6994      1
  6995  6992  6995      1
  6996  6992  6996      1
  6997  6992  6997      1
  6998  6997  6998      1
  6999  6997  6999      1
  7000  6997  7000      1
  7001  6998  7001      1
  7002  6998  7002      1
  7003  6998  7003      1
  7004  7003  7004      1
  7005  7003  7005      1
  7006  7003  7006      1
  7007  7004  7007      1
  7008  7004  7008      1
  7009  7004  7009      1
  7010  7009  7010      1
  7011  7009  7011      1
  7012  7009  7012      1
  7013  7010  7013      1
  7014  7010  7014      1
  7015  7010  7015      1
  7016  7015  7016      1
  7017  7015  7017      1
  7018  7015  7018      1
  7019  7016  7019      1
  7020  7016  7020      1
  7021  7016  7021      1
  7022  7021  7022      1
  7023  7021  7023      1
  7024  7021  7024      1
  7025  7022  7025      1
  7026  7022  7026      1
  7027  7022  7027      1
  7028  7027  7028      1
  7029  7027  7029      1
  7030  7027  7030      1
  7031  7028  7031      1
  7032  7028  7032      1
  7033  7028  7033      1
  7034  7033  7034      1
  7035  7033  7035      1
  7036  7033  7036      1
  7037  7034  7037      1
  7038  7034  7038      1
  7039  7034  7039      1
  7040  7039  7040      1
  7041  7039  7041      1
  7042  7039  7042      1
  7043  7040  7043      1
  7044  7040  7044      1
  7045  7040  7045      1
  7046  7045  7046      1
  7047  7045  7047      1
  7048  7045  7048      1
  7049  7046  7049      1
  7050  7046  7050      1
  7051  7046  7051      1
  7052  7051  7052      1
  7053  7051  7053      1
  7054  7051  7054      1
  7055  7052  7055      1
  7056  7052  7056      1
  7057  7052  7057      1
  7058  7057  7058      1
  7059  7057  7059      1
  7060  7057  7060      1
  7061  7058  7061      1
  7062  7058  7062      1
  7063  7058  7063      1
  7064  7063  7064      1
  7065  7063  7065      1
  7066  7063  7066      1
  7067  7064  7067      1
  7068  7064  7068      1
  7069  7064  7069      1
  7070  7069  7070      1
  7071  7069  7071      1
  7072  7069  7072      1
  7073  7070  7073      1
  7074  7070  7074      1
  7075  7070  7075      1
  7076  7075  7076      1
  7077  7075  7077      1
  7078  7075  7078      1
  7079  7076  7079      1
  7080  7076  7080      1
  7081  7076  7081      1
  7082  7081  7082      1
  7083  7081  7083      1
  7084  7081  7084      1
  7085  7082  7085      1
  7086  7082  7086      1
  7087  7082  7087      1
  7088  7087  7088      1
  7089  7087  7089      1
  7090  7087  7090      1
  7091  7088  7091      1
  7092  7088  7092      1
  7093  7088  7093      1
  7094  7093  7094      1
  7095  7093  7095      1
  7096  7093  7096      1
  7097  7094  7097      1
  7098  7094  7098      1
  7099  7094  7099      1
  7100  7099  7100      1
  7101  7099  7101      1
  7102  7099  7102      1
  7103  7100  7103      1
  7104  7100  7104      1
  7105  7100  7105      1
  7106  7105  7106      1
  7107  7105  7107      1
  7108  7105  7108      1
  7109  7106  7109      1
  7110  7106  7110      1
  7111  7106  7111      1
  7112  7111  7112      1
  7113  7111  7113      1
  7114  7111  7114      1
  7115  7112  7115      1
  7116  7112  7116      1
  7117  7112  7117      1
  7118  7117  7118      1
  7119  7117  7119      1
  7120  7117  7120      1
  7121  7118  7121      1
  7122  7118  7122      1
  7123  7118  7123      1
  7124  7123  7124      1
  7125  7123  7125      1
  7126  7123  7126      1
  7127  7124  7127      1
  7128  7124  7128      1
  7129  7124  7129      1
  7130  7129  7130      1
  7131  7129  7131      1
  7132  7129  7132      1
  7133  7130  7133      1
  7134  7130  7134      1
  7135  7130  7135      1
  7136  7135  7136      1
  7137  7135  7137      1
  7138  7135  7138      1
  7139  7136  7139      1
  7140  7136  7140      1
  7141  7136  7141      1
  7142  7141  7142      1
  7143  7141  7143      1
  7144  7141  7144      1
  7145  7142  7145      1
  7146  7142  7146      1
  7147  7142  7147      1
  7148  7147  7148      1
  7149  7147  7149      1
  7150  7147  7150      1
  7151  7148  7151      1
  7152  7148  7152      1
  7153  7148  7153      1
  7154  7153  7154      1
  7155  7153  7155      1
  7156  7153  7156      1
  7157  7154  7157      1
  7158  7154  7158      1
  7159  7154  7159      1
  7160  7159  7160      1
  7161  7159  7161      1
  7162  7159  7162      1
  7163  7160  7163      1
  7164  7160  7164      1
  7165  7160  7165      1
  7166  7165  7166      1
  7167  7165  7167      1
  7168  7165  7168      1
  7169  7166  7169      1
  7170  7166  7170      1
  7171  7166  7171      1
  7172  7171  7172      1
  7173  7171  7173      1
  7174  7171  7174      1
  7175  7172  7175      1
  7176  7172  7176      1
  7177  7172  7177      1
  7178  7177  7178      1
  7179  7177  7179      1
  7180  7177  7180      1
  7181  7178  7181      1
  7182  7178  7182      1
  7183  7178  7183      1
  7184  7183  7184      1
  7185  7183  7185      1
  7186  7183  7186      1
  7187  7184  7187      1
  7188  7184  7188      1
  7189  7184  7189      1
  7190  7189  7190      1
  7191  7189  7191      1
  7192  7189  7192      1
  7193  7190  7193      1
  7194  7190  7194      1
  7195  7190  7195      1
  7196  7195  7196      1
  7197  7195  7197      1
  7198  7195  7198      1
  7199  7196  7199      1
  7200  7196  7200      1
  7201  7196  7201      1
  7202  7201  7202      1
  7203  7201  7203      1
  7204  7201  7204      1
  7205  7202  7205      1
  7206  7202  7206      1
  7207  7202  7207      1
  7208  7207  7208      1
  7209  7207  7209      1
  7210  7207  7210      1
  7211  7208  7211      1
  7212  7208  7212      1
  7213  7208  7213      1
  7214  7213  7214      1
  7215  7213  7215      1
  7216  7213  7216      1
  7217  7214  7217      1
  7218  7214  7218      1
  7219  7214  7219      1
  7220  7219  7220      1
  7221  7219  7221      1
  7222  7219  7222      1
  7223  7220  7223      1
  7224  7220  7224      1
  7225  7220  7225      1
  7226  7225  7226      1
  7227  7225  7227      1
  7228  7225  7228      1
  7229  7226  7229      1
  7230  7226  7230      1
  7231  7226  7231      1
  7232  7231  7232      1
  7233  7231  7233      1
  7234  7231  7234      1
  7235  7232  7235      1
  7236  7232  7236      1
  7237  7232  7237      1
  7238  7237  7238      1
  7239  7237  7239      1
  7240  7237  7240      1
  7241  7238  7241      1
  7242  7238  7242      1
  7243  7238  7243      1
  7244  7243  7244      1
  7245  7243  7245      1
  7246  7243  7246      1
  7247  7244  7247      1
  7248  7244  7248      1
  7249  7244  7249      1
  7250  7249  7250      1
  7251  7249  7251      1
  7252  7249  7252      1
  7253  7250  7253      1
  7254  7250  7254      1
  7255  7250  7255      1
  7256  7255  7256      1
  7257  7255  7257      1
  7258  7255  7258      1
  7259  7256  7259      1
  7260  7256  7260      1
  7261  7256  7261      1
  7262  7261  7262      1
  7263  7261  7263      1
  7264  7261  7264      1
  7265  7262  7265      1
  7266  7262  7266      1
  7267  7262  7267      1
  7268  7267  7268      1
  7269  7267  7269      1
  7270  7267  7270      1
  7271  7268  7271      1
  7272  7268  7272      1
  7273  7268  7273      1
  7274  7273  7274      1
  7275  7273  7275      1
  7276  7273  7276      1
  7277  7274  7277      1
  7278  7274  7278      1
  7279  7274  7279      1
  7280  7279  7280      1
  7281  7279  7281      1
  7282  7279  7282      1
  7283  7280  7283      1
  7284  7280  7284      1
  7285  7280  7285      1
  7286  7285  7286      1
  7287  7285  7287      1
  7288  7285  7288      1
  7289  7286  7289      1
  7290  7286  7290      1
  7291  7286  7291      1
  7292  7291  7292      1
  7293  7291  7293      1
  7294  7291  7294      1
  7295  7292  7295      1
  7296  7292  7296      1
  7297  7292  7297      1
  7298  7297  7298      1
  7299  7297  7299      1
  7300  7297  7300      1
  7301  7298  7301      1
  7302  7298  7302      1
  7303  7298  7303      1
  7304  7303  7304      1
  7305  7303  7305      1
  7306  7303  7306      1
  7307  7304  7307      1
  7308  7304  7308      1
  7309  7304  7309      1
  7310  7309  7310      1
  7311  7309  7311      1
  7312  7309  7312      1
  7313  7310  7313      1
  7314  7310  7314      1
  7315  7310  7315      1
  7316  7315  7316      1
  7317  7315  7317      1
  7318  7315  7318      1
  7319  7316  7319      1
  7320  7316  7320      1
  7321  7316  7321      1
  7322  7321  7322      1
  7323  7321  7323      1
  7324  7321  7324      1
  7325  7322  7325      1
  7326  7322  7326      1
  7327  7322  7327      1
  7328  7327  7328      1
  7329  7327  7329      1
  7330  7327  7330      1
  7331  7328  7331      1
  7332  7328  7332      1
  7333  7328  7333      1
  7334  7333  7334      1
  7335  7333  7335      1
  7336  7333  7336      1
  7337  7334  7337      1
  7338  7334  7338      1
  7339  7334  7339      1
  7340  7339  7340      1
  7341  7339  7341      1
  7342  7339  7342      1
  7343  7340  7343      1
  7344  7340  7344      1
  7345  7340  7345      1
  7346  7345  7346      1
  7347  7345  7347      1
  7348  7345  7348      1
  7349  7346  7349      1
  7350  7346  7350      1
  7351  7346  7351      1
  7352  7351  7352      1
  7353  7351  7353      1
  7354  7351  7354      1
  7355  7352  7355      1
  7356  7352  7356      1
  7357  7352  7357      1
  7358  7357  7358      1
  7359  7357  7359      1
  7360  7357  7360      1
  7361  7358  7361      1
  7362  7358  7362      1
  7363  7358  7363      1
  7364  7363  7364      1
  7365  7363  7365      1
  7366  7363  7366      1
  7367  7364  7367      1
  7368  7364  7368      1
  7369  7364  7369      1
  7370  7369  7370      1
  7371  7369  7371      1
  7372  7369  7372      1
  7373  7370  7373      1
  7374  7370  7374      1
  7375  7370  7375      1
  7376  7375  7376      1
  7377  7375  7377      1
  7378  7375  7378      1
  7379  7376  7379      1
  7380  7376  7380      1
  7381  7376  7381      1
  7382  7381  7382      1
  7383  7381  7383      1
  7384  7381  7384      1
  7385  7382  7385      1
  7386  7382  7386      1
  7387  7382  7387      1
  7388  7387  7388      1
  7389  7387  7389      1
  7390  7387  7390      1
  7391  7388  7391      1
  7392  7388  7392      1
  7393  7388  7393      1
  7394  7393  7394      1
  7395  7393  7395      1
  7396  7393  7396      1
  7397  7394  7397      1
  7398  7394  7398      1
  7399  7394  7399      1
  7400  7399  7400      1
  7401  7399  7401      1
  7402  7399  7402      1
  7403  7400  7403      1
  7404  7400  7404      1
  7405  7400  7405      1
  7406  7405  7406      1
  7407  7405  7407      1
  7408  7405  7408      1
  7409  7406  7409      1
  7410  7406  7410      1
  7411  7406  7411      1
  7412  7411  7412      1
  7413  7411  7413      1
  7414  7411  7414      1
  7415  7412  7415      1
  7416  7412  7416      1
  7417  7412  7417      1
  7418  7417  7418      1
  7419  7417  7419      1
  7420  7417  7420      1
  7421  7418  7421      1
  7422  7418  7422      1
  7423  7418  7423      1
  7424  7423  7424      1
  7425  7423  7425      1
  7426  7423  7426      1
  7427  7424  7427      1
  7428  7424  7428      1
  7429  7424  7429      1
  7430  7429  7430      1
  7431  7429  7431      1
  7432  7429  7432      1
  7433  7430  7433      1
  7434  7430  7434      1
  7435  7430  7435      1
  7436  7435  7436      1
  7437  7435  7437      1
  7438  7435  7438      1
  7439  7436  7439      1
  7440  7436  7440      1
  7441  7436  7441      1
  7442  7441  7442      1
  7443  7441  7443      1
  7444  7441  7444      1
  7445  7442  7445      1
  7446  7442  7446      1
  7447  7442  7447      1
  7448  7447  7448      1
  7449  7447  7449      1
  7450  7447  7450      1
  7451  7448  7451      1
  7452  7448  7452      1
  7453  7448  7453      1
  7454  7453  7454      1
  7455  7453  7455      1
  7456  7453  7456      1
  7457  7454  7457      1
  7458  7454  7458      1
  7459  7454  7459      1
  7460  7459  7460      1
  7461  7459  7461      1
  7462  7459  7462      1
  7463  7460  7463      1
  7464  7460  7464      1
  7465  7460  7465      1
  7466  7465  7466      1
  7467  7465  7467      1
  7468  7465  7468      1
  7469  7466  7469      1
  7470  7466  7470      1
  7471  7466  7471      1
  7472  7471  7472      1
  7473  7471  7473      1
  7474  7471  7474      1
  7475  7472  7475      1
  7476  7472  7476      1
  7477  7472  7477      1
  7478  7477  7478      1
  7479  7477  7479      1
  7480  7477  7480      1
  7481  7478  7481      1
  7482  7478  7482      1
  7483  7478  7483      1
  7484  7483  7484      1
  7485  7483  7485      1
  7486  7483  7486      1
  7487  7484  7487      1
  7488  7484  7488      1
  7489  7484  7489      1
  7490  7489  7490      1
  7491  7489  7491      1
  7492  7489  7492      1
  7493  7490  7493      1
  7494  7490  7494      1
  7495  7490  7495      1
  7496  7495  7496      1
  7497  7495  7497      1
  7498  7495  7498      1
  7499  7496  7499      1
  7500  7496  7500      1
  7501  7496  7501      1
  7502  7501  7502      1
  7503  7501  7503      1
  7504  7501  7504      1
  7505  7502  7505      1
  7506  7502  7506      1
  7507  7502  7507      1
  7508  7507  7508      1
  7509  7507  7509      1
  7510  7507  7510      1
  7511  7508  7511      1
  7512  7508  7512      1
  7513  7508  7513      1
  7514  7513  7514      1
  7515  7513  7515      1
  7516  7513  7516      1
  7517  7514  7517      1
  7518  7514  7518      1
  7519  7514  7519      1
  7520  7519  7520      1
  7521  7519  7521      1
  7522  7519  7522      1
  7523  7520  7523      1
  7524  7520  7524      1
  7525  7520  7525      1
  7526  7525  7526      1
  7527  7525  7527      1
  7528  7525  7528      1
  7529  7526  7529      1
  7530  7526  7530      1
  7531  7526  7531      1
  7532  7531  7532      1
  7533  7531  7533      1
  7534  7531  7534      1
  7535  7532  7535      1
  7536  7532  7536      1
  7537  7532  7537      1
  7538  7537  7538      1
  7539  7537  7539      1
  7540  7537  7540      1
  7541  7538  7541      1
  7542  7538  7542      1
  7543  7538  7543      1
  7544  7543  7544      1
  7545  7543  7545      1
  7546  7543  7546      1
  7547  7544  7547      1
  7548  7544  7548      1
  7549  7544  7549      1
  7550  7549  7550      1
  7551  7549  7551      1
  7552  7549  7552      1
  7553  7550  7553      1
  7554  7550  7554      1
  7555  7550  7555      1
  7556  7555  7556      1
  7557  7555  7557      1
  7558  7555  7558      1
  7559  7556  7559      1
  7560  7556  7560      1
  7561  7556  7561      1
  7562  7561  7562      1
  7563  7561  7563      1
  7564  7561  7564      1
  7565  7562  7565      1
  7566  7562  7566      1
  7567  7562  7567      1
  7568  7567  7568      1
  7569  7567  7569      1
  7570  7567  7570      1
  7571  7568  7571      1
  7572  7568  7572      1
  7573  7568  7573      1
  7574  7573  7574      1
  7575  7573  7575      1
  7576  7573  7576      1
  7577  7574  7577      1
  7578  7574  7578      1
  7579  7574  7579      1
  7580  7579  7580      1
  7581  7579  7581      1
  7582  7579  7582      1
  7583  7580  7583      1
  7584  7580  7584      1
  7585  7580  7585      1
  7586  7585  7586      1
  7587  7585  7587      1
  7588  7585  7588      1
  7589  7586  7589      1
  7590  7586  7590      1
  7591  7586  7591      1
  7592  7591  7592      1
  7593  7591  7593      1
  7594  7591  7594      1
  7595  7592  7595      1
  7596  7592  7596      1
  7597  7592  7597      1
  7598  7597  7598      1
  7599  7597  7599      1
  7600  7597  7600      1
  7601  7598  7601      1
  7602  7598  7602      1
  7603  7598  7603      1
  7604  7603  7604      1
  7605  7603  7605      1
  7606  7603  7606      1
  7607  7604  7607      1
  7608  7604  7608      1
  7609  7604  7609      1
  7610  7609  7610      1
  7611  7609  7611      1
  7612  7609  7612      1
  7613  7610  7613      1
  7614  7610  7614      1
  7615  7610  7615      1
  7616  7615  7616      1
  7617  7615  7617      1
  7618  7615  7618      1
  7619  7616  7619      1
  7620  7616  7620      1
  7621  7616  7621      1
  7622  7621  7622      1
  7623  7621  7623      1
  7624  7621  7624      1
  7625  7622  7625      1
  7626  7622  7626      1
  7627  7622  7627      1
  7628  7627  7628      1
  7629  7627  7629      1
  7630  7627  7630      1
  7631  7628  7631      1
  7632  7628  7632      1
  7633  7628  7633      1
  7634  7633  7634      1
  7635  7633  7635      1
  7636  7633  7636      1
  7637  7634  7637      1
  7638  7634  7638      1
  7639  7634  7639      1
  7640  7639  7640      1
  7641  7639  7641      1
  7642  7639  7642      1
  7643  7640  7643      1
  7644  7640  7644      1
  7645  7640  7645      1
  7646  7645  7646      1
  7647  7645  7647      1
  7648  7645  7648      1
  7649  7646  7649      1
  7650  7646  7650      1
  7651  7646  7651      1
  7652  7651  7652      1
  7653  7651  7653      1
  7654  7651  7654      1
  7655  7652  7655      1
  7656  7652  7656      1
  7657  7652  7657      1
  7658  7657  7658      1
  7659  7657  7659      1
  7660  7657  7660      1
  7661  7658  7661      1
  7662  7658  7662      1
  7663  7658  7663      1
  7664  7663  7664      1
  7665  7663  7665      1
  7666  7663  7666      1
  7667  7664  7667      1
  7668  7664  7668      1
  7669  7664  7669      1
  7670  7669  7670      1
  7671  7669  7671      1
  7672  7669  7672      1
  7673  7670  7673      1
  7674  7670  7674      1
  7675  7670  7675      1
  7676  7675  7676      1
  7677  7675  7677      1
  7678  7675  7678      1
  7679  7676  7679      1
  7680  7676  7680      1
  7681  7676  7681      1
  7682  7681  7682      1
  7683  7681  7683      1
  7684  7681  7684      1
  7685  7682  7685      1
  7686  7682  7686      1
  7687  7682  7687      1
  7688  7687  7688      1
  7689  7687  7689      1
  7690  7687  7690      1
  7691  7688  7691      1
  7692  7688  7692      1
  7693  7688  7693      1
  7694  7693  7694      1
  7695  7693  7695      1
  7696  7693  7696      1
  7697  7694  7697      1
  7698  7694  7698      1
  7699  7694  7699      1
  7700  7699  7700      1
  7701  7699  7701      1
  7702  7699  7702      1
  7703  7700  7703      1
  7704  7700  7704      1
  7705  7700  7705      1
  7706  7705  7706      1
  7707  7705  7707      1
  7708  7705  7708      1
  7709  7706  7709      1
  7710  7706  7710      1
  7711  7706  7711      1
  7712  7711  7712      1
  7713  7711  7713      1
  7714  7711  7714      1
  7715  7712  7715      1
  7716  7712  7716      1
  7717  7712  7717      1
  7718  7717  7718      1
  7719  7717  7719      1
  7720  7717  7720      1
  7721  7718  7721      1
  7722  7718  7722      1
  7723  7718  7723      1
  7724  7723  7724      1
  7725  7723  7725      1
  7726  7723  7726      1
  7727  7724  7727      1
  7728  7724  7728      1
  7729  7724  7729      1
  7730  7729  7730      1
  7731  7729  7731      1
  7732  7729  7732      1
  7733  7730  7733      1
  7734  7730  7734      1
  7735  7730  7735      1
  7736  7735  7736      1
  7737  7735  7737      1
  7738  7735  7738      1
  7739  7736  7739      1
  7740  7736  7740      1
  7741  7736  7741      1
  7742  7741  7742      1
  7743  7741  7743      1
  7744  7741  7744      1
  7745  7742  7745      1
  7746  7742  7746      1
  7747  7742  7747      1
  7748  7747  7748      1
  7749  7747  7749      1
  7750  7747  7750      1
  7751  7748  7751      1
  7752  7748  7752      1
  7753  7748  7753      1
  7754  7753  7754      1
  7755  7753  7755      1
  7756  7753  7756      1
  7757  7754  7757      1
  7758  7754  7758      1
  7759  7754  7759      1
  7760  7759  7760      1
  7761  7759  7761      1
  7762  7759  7762      1
  7763  7760  7763      1
  7764  7760  7764      1
  7765  7760  7765      1
  7766  7765  7766      1
  7767  7765  7767      1
  7768  7765  7768      1
  7769  7766  7769      1
  7770  7766  7770      1
  7771  7766  7771      1
  7772  7771  7772      1
  7773  7771  7773      1
  7774  7771  7774      1
  7775  7772  7775      1
  7776  7772  7776      1
  7777  7772  7777      1
  7778  7777  7778      1
  7779  7777  7779      1
  7780  7777  7780      1
  7781  7778  7781      1
  7782  7778  7782      1
  7783  7778  7783      1
  7784  7783  7784      1
  7785  7783  7785      1
  7786  7783  7786      1
  7787  7784  7787      1
  7788  7784  7788      1
  7789  7784  7789      1
  7790  7789  7790      1
  7791  7789  7791      1
  7792  7789  7792      1
  7793  7790  7793      1
  7794  7790  7794      1
  7795  7790  7795      1
  7796  7795  7796      1
  7797  7795  7797      1
  7798  7795  7798      1
  7799  7796  7799      1
  7800  7796  7800      1
  7801  7796  7801      1
  7802  7801  7802      1
  7803  7801  7803      1
  7804  7801  7804      1
  7805  7802  7805      1
  7806  7802  7806      1
  7807  7802  7807      1
  7808  7807  7808      1
  7809  7807  7809      1
  7810  7807  7810      1
  7811  7808  7811      1
  7812  7808  7812      1
  7813  7808  7813      1
  7814  7813  7814      1
  7815  7813  7815      1
  7816  7813  7816      1
  7817  7814  7817      1
  7818  7814  7818      1
  7819  7814  7819      1
  7820  7819  7820      1
  7821  7819  7821      1
  7822  7819  7822      1
  7823  7820  7823      1
  7824  7820  7824      1
  7825  7820  7825      1
  7826  7825  7826      1
  7827  7825  7827      1
  7828  7825  7828      1
  7829  7826  7829      1
  7830  7826  7830      1
  7831  7826  7831      1
  7832  7831  7832      1
  7833  7831  7833      1
  7834  7831  7834      1
  7835  7832  7835      1
  7836  7832  7836      1
  7837  7832  7837      1
  7838  7837  7838      1
  7839  7837  7839      1
  7840  7837  7840      1
  7841  7838  7841      1
  7842  7838  7842      1
  7843  7838  7843      1
  7844  7843  7844      1
  7845  7843  7845      1
  7846  7843  7846      1
  7847  7844  7847      1
  7848  7844  7848      1
  7849  7844  7849      1
  7850  7849  7850      1
  7851  7849  7851      1
  7852  7849  7852      1
  7853  7850  7853      1
  7854  7850  7854      1
  7855  7850  7855      1
  7856  7855  7856      1
  7857  7855  7857      1
  7858  7855  7858      1
  7859  7856  7859      1
  7860  7856  7860      1
  7861  7856  7861      1
  7862  7861  7862      1
  7863  7861  7863      1
  7864  7861  7864      1
  7865  7862  7865      1
  7866  7862  7866      1
  7867  7862  7867      1
  7868  7867  7868      1
  7869  7867  7869      1
  7870  7867  7870      1
  7871  7868  7871      1
  7872  7868  7872      1
  7873  7868  7873      1
  7874  7873  7874      1
  7875  7873  7875      1
  7876  7873  7876      1
  7877  7874  7877      1
  7878  7874  7878      1
  7879  7874  7879      1
  7880  7879  7880      1
  7881  7879  7881      1
  7882  7879  7882      1
  7883  7880  7883      1
  7884  7880  7884      1
  7885  7880  7885      1
  7886  7885  7886      1
  7887  7885  7887      1
  7888  7885  7888      1
  7889  7886  7889      1
  7890  7886  7890      1
  7891  7886  7891      1
  7892  7891  7892      1
  7893  7891  7893      1
  7894  7891  7894      1
  7895  7892  7895      1
  7896  7892  7896      1
  7897  7892  7897      1
  7898  7897  7898      1
  7899  7897  7899      1
  7900  7897  7900      1
  7901  7898  7901      1
  7902  7898  7902      1
  7903  7898  7903      1
  7904  7903  7904      1
  7905  7903  7905      1
  7906  7903  7906      1
  7907  7904  7907      1
  7908  7904  7908      1
  7909  7904  7909      1
  7910  7909  7910      1
  7911  7909  7911      1
  7912  7909  7912      1
  7913  7910  7913      1
  7914  7910  7914      1
  7915  7910  7915      1
  7916  7915  7916      1
  7917  7915  7917      1
  7918  7915  7918      1
  7919  7916  7919      1
  7920  7916  7920      1
  7921  7916  7921      1
  7922  7921  7922      1
  7923  7921  7923      1
  7924  7921  7924      1
  7925  7922  7925      1
  7926  7922  7926      1
  7927  7922  7927      1
  7928  7927  7928      1
  7929  7927  7929      1
  7930  7927  7930      1
  7931  7928  7931      1
  7932  7928  7932      1
  7933  7928  7933      1
  7934  7933  7934      1
  7935  7933  7935      1
  7936  7933  7936      1
  7937  7934  7937      1
  7938  7934  7938      1
  7939  7934  7939      1
  7940  7939  7940      1
  7941  7939  7941      1
  7942  7939  7942      1
  7943  7940  7943      1
  7944  7940  7944      1
  7945  7940  7945      1
  7946  7945  7946      1
  7947  7945  7947      1
  7948  7945  7948      1
  7949  7946  7949      1
  7950  7946  7950      1
  7951  7946  7951      1
  7952  7951  7952      1
  7953  7951  7953      1
  7954  7951  7954      1
  7955  7952  7955      1
  7956  7952  7956      1
  7957  7952  7957      1
  7958  7957  7958      1
  7959  7957  7959      1
  7960  7957  7960      1
  7961  7958  7961      1
  7962  7958  7962      1
  7963  7958  7963      1
  7964  7963  7964      1
  7965  7963  7965      1
  7966  7963  7966      1
  7967  7964  7967      1
  7968  7964  7968      1
  7969  7964  7969      1
  7970  7969  7970      1
  7971  7969  7971      1
  7972  7969  7972      1
  7973  7970  7973      1
  7974  7970  7974      1
  7975  7970  7975      1
  7976  7975  7976      1
  7977  7975  7977      1
  7978  7975  7978      1
  7979  7976  7979      1
  7980  7976  7980      1
  7981  7976  7981      1
  7982  7981  7982      1
  7983  7981  7983      1
  7984  7981  7984      1
  7985  7982  7985      1
  7986  7982  7986      1
  7987  7982  7987      1
  7988  7987  7988      1
  7989  7987  7989      1
  7990  7987  7990      1
  7991  7988  7991      1
  7992  7988  7992      1
  7993  7988  7993      1
  7994  7993  7994      1
  7995  7993  7995      1
  7996  7993  7996      1
  7997  7994  7997      1
  7998  7994  7998      1
  7999  7994  7999      1
  8000  7999  8000      1
  8001  7999  8001      1
  8002  7999  8002      1
  8003  8000  8003      1
  8004  8000  8004      1
  8005  8000  8005      1
  8006  8005  8006      1
  8007  8005  8007      1
  8008  8005  8008      1
  8009  8006  8009      1
  8010  8006  8010      1
  8011  8006  8011      1
  8012  8011  8012      1
  8013  8011  8013      1
  8014  8011  8014      1
  8015  8012  8015      1
  8016  8012  8016      1
  8017  8012  8017      1
  8018  8017  8018      1
  8019  8017  8019      1
  8020  8017  8020      1
  8021  8018  8021      1
  8022  8018  8022      1
  8023  8018  8023      1
  8024  8023  8024      1
  8025  8023  8025      1
  8026  8023  8026      1
  8027  8024  8027      1
  8028  8024  8028      1
  8029  8024  8029      1
  8030  8029  8030      1
  8031  8029  8031      1
  8032  8029  8032      1
  8033  8030  8033      1
  8034  8030  8034      1
  8035  8030  8035      1
  8036  8035  8036      1
  8037  8035  8037      1
  8038  8035  8038      1
  8039  8036  8039      1
  8040  8036  8040      1
  8041  8036  8041      1
  8042  8041  8042      1
  8043  8041  8043      1
  8044  8041  8044      1
  8045  8042  8045      1
  8046  8042  8046      1
  8047  8042  8047      1
  8048  8047  8048      1
  8049  8047  8049      1
  8050  8047  8050      1
  8051  8048  8051      1
  8052  8048  8052      1
  8053  8048  8053      1
  8054  8053  8054      1
  8055  8053  8055      1
  8056  8053  8056      1
  8057  8054  8057      1
  8058  8054  8058      1
  8059  8054  8059      1
  8060  8059  8060      1
  8061  8059  8061      1
  8062  8059  8062      1
  8063  8060  8063      1
  8064  8060  8064      1
  8065  8060  8065      1
  8066  8065  8066      1
  8067  8065  8067      1
  8068  8065  8068      1
  8069  8066  8069      1
  8070  8066  8070      1
  8071  8066  8071      1
  8072  8071  8072      1
  8073  8071  8073      1
  8074  8071  8074      1
  8075  8072  8075      1
  8076  8072  8076      1
  8077  8072  8077      1
  8078  8077  8078      1
  8079  8077  8079      1
  8080  8077  8080      1
  8081  8078  8081      1
  8082  8078  8082      1
  8083  8078  8083      1
  8084  8083  8084      1
  8085  8083  8085      1
  8086  8083  8086      1
  8087  8084  8087      1
  8088  8084  8088      1
  8089  8084  8089      1
  8090  8089  8090      1
  8091  8089  8091      1
  8092  8089  8092      1
  8093  8090  8093      1
  8094  8090  8094      1
  8095  8090  8095      1
  8096  8095  8096      1
  8097  8095  8097      1
  8098  8095  8098      1
  8099  8096  8099      1
  8100  8096  8100      1
  8101  8096  8101      1
  8102  8101  8102      1
  8103  8101  8103      1
  8104  8101  8104      1
  8105  8102  8105      1
  8106  8102  8106      1
  8107  8102  8107      1
  8108  8107  8108      1
  8109  8107  8109      1
  8110  8107  8110      1
  8111  8108  8111      1
  8112  8108  8112      1
  8113  8108  8113      1
  8114  8113  8114      1
  8115  8113  8115      1
  8116  8113  8116      1
  8117  8114  8117      1
  8118  8114  8118      1
  8119  8114  8119      1
  8120  8119  8120      1
  8121  8119  8121      1
  8122  8119  8122      1
  8123  8120  8123      1
  8124  8120  8124      1
  8125  8120  8125      1
  8126  8125  8126      1
  8127  8125  8127      1
  8128  8125  8128      1
  8129  8126  8129      1
  8130  8126  8130      1
  8131  8126  8131      1
  8132  8131  8132      1
  8133  8131  8133      1
  8134  8131  8134      1
  8135  8132  8135      1
  8136  8132  8136      1
  8137  8132  8137      1
  8138  8137  8138      1
  8139  8137  8139      1
  8140  8137  8140      1
  8141  8138  8141      1
  8142  8138  8142      1
  8143  8138  8143      1
  8144  8143  8144      1
  8145  8143  8145      1
  8146  8143  8146      1
  8147  8144  8147      1
  8148  8144  8148      1
  8149  8144  8149      1
  8150  8149  8150      1
  8151  8149  8151      1
  8152  8149  8152      1
  8153  8150  8153      1
  8154  8150  8154      1
  8155  8150  8155      1
  8156  8155  8156      1
  8157  8155  8157      1
  8158  8155  8158      1
  8159  8156  8159      1
  8160  8156  8160      1
  8161  8156  8161      1
  8162  8161  8162      1
  8163  8161  8163      1
  8164  8161  8164      1
  8165  8162  8165      1
  8166  8162  8166      1
  8167  8162  8167      1
  8168  8167  8168      1
  8169  8167  8169      1
  8170  8167  8170      1
  8171  8168  8171      1
  8172  8168  8172      1
  8173  8168  8173      1
  8174  8173  8174      1
  8175  8173  8175      1
  8176  8173  8176      1
  8177  8174  8177      1
  8178  8174  8178      1
  8179  8174  8179      1
  8180  8179  8180      1
  8181  8179  8181      1
  8182  8179  8182      1
  8183  8180  8183      1
  8184  8180  8184      1
  8185  8180  8185      1
  8186  8185  8186      1
  8187  8185  8187      1
  8188  8185  8188      1
  8189  8186  8189      1
  8190  8186  8190      1
  8191  8186  8191      1
  8192  8191  8192      1
  8193  8191  8193      1
  8194  8191  8194      1
  8195  8192  8195      1
  8196  8192  8196      1
  8197  8192  8197      1
  8198  8197  8198      1
  8199  8197  8199      1
  8200  8197  8200      1
  8201  8198  8201      1
  8202  8198  8202      1
  8203  8198  8203      1
  8204  8203  8204      1
  8205  8203  8205      1
  8206  8203  8206      1
  8207  8204  8207      1
  8208  8204  8208      1
  8209  8204  8209      1
  8210  8209  8210      1
  8211  8209  8211      1
  8212  8209  8212      1
  8213  8210  8213      1
  8214  8210  8214      1
  8215  8210  8215      1
  8216  8215  8216      1
  8217  8215  8217      1
  8218  8215  8218      1
  8219  8216  8219      1
  8220  8216  8220      1
  8221  8216  8221      1
  8222  8221  8222      1
  8223  8221  8223      1
  8224  8221  8224      1
  8225  8222  8225      1
  8226  8222  8226      1
  8227  8222  8227      1
  8228  8227  8228      1
  8229  8227  8229      1
  8230  8227  8230      1
  8231  8228  8231      1
  8232  8228  8232      1
  8233  8228  8233      1
  8234  8233  8234      1
  8235  8233  8235      1
  8236  8233  8236      1
  8237  8234  8237      1
  8238  8234  8238      1
  8239  8234  8239      1
  8240  8239  8240      1
  8241  8239  8241      1
  8242  8239  8242      1
  8243  8240  8243      1
  8244  8240  8244      1
  8245  8240  8245      1
  8246  8245  8246      1
  8247  8245  8247      1
  8248  8245  8248      1
  8249  8246  8249      1
  8250  8246  8250      1
  8251  8246  8251      1
  8252  8251  8252      1
  8253  8251  8253      1
  8254  8251  8254      1
  8255  8252  8255      1
  8256  8252  8256      1
  8257  8252  8257      1
  8258  8257  8258      1
  8259  8257  8259      1
  8260  8257  8260      1
  8261  8258  8261      1
  8262  8258  8262      1
  8263  8258  8263      1
  8264  8263  8264      1
  8265  8263  8265      1
  8266  8263  8266      1
  8267  8264  8267      1
  8268  8264  8268      1
  8269  8264  8269      1
  8270  8269  8270      1
  8271  8269  8271      1
  8272  8269  8272      1
  8273  8270  8273      1
  8274  8270  8274      1
  8275  8270  8275      1
  8276  8275  8276      1
  8277  8275  8277      1
  8278  8275  8278      1
  8279  8276  8279      1
  8280  8276  8280      1
  8281  8276  8281      1
  8282  8281  8282      1
  8283  8281  8283      1
  8284  8281  8284      1
  8285  8282  8285      1
  8286  8282  8286      1
  8287  8282  8287      1
  8288  8287  8288      1
  8289  8287  8289      1
  8290  8287  8290      1
  8291  8288  8291      1
  8292  8288  8292      1
  8293  8288  8293      1
  8294  8293  8294      1
  8295  8293  8295      1
  8296  8293  8296      1
  8297  8294  8297      1
  8298  8294  8298      1
  8299  8294  8299      1
  8300  8299  8300      1
  8301  8299  8301      1
  8302  8299  8302      1
  8303  8300  8303      1
  8304  8300  8304      1
  8305  8300  8305      1
  8306  8305  8306      1
  8307  8305  8307      1
  8308  8305  8308      1
  8309  8306  8309      1
  8310  8306  8310      1
  8311  8306  8311      1
  8312  8311  8312      1
  8313  8311  8313      1
  8314  8311  8314      1
  8315  8312  8315      1
  8316  8312  8316      1
  8317  8312  8317      1
  8318  8317  8318      1
  8319  8317  8319      1
  8320  8317  8320      1
  8321  8318  8321      1
  8322  8318  8322      1
  8323  8318  8323      1
  8324  8323  8324      1
  8325  8323  8325      1
  8326  8323  8326      1
  8327  8324  8327      1
  8328  8324  8328      1
  8329  8324  8329      1
  8330  8329  8330      1
  8331  8329  8331      1
  8332  8329  8332      1
  8333  8330  8333      1
  8334  8330  8334      1
  8335  8330  8335      1
  8336  8335  8336      1
  8337  8335  8337      1
  8338  8335  8338      1
  8339  8336  8339      1
  8340  8336  8340      1
  8341  8336  8341      1
  8342  8341  8342      1
  8343  8341  8343      1
  8344  8341  8344      1
  8345  8342  8345      1
  8346  8342  8346      1
  8347  8342  8347      1
  8348  8347  8348      1
  8349  8347  8349      1
  8350  8347  8350      1
  8351  8348  8351      1
  8352  8348  8352      1
  8353  8348  8353      1
  8354  8353  8354      1
  8355  8353  8355      1
  8356  8353  8356      1
  8357  8354  8357      1
  8358  8354  8358      1
  8359  8354  8359      1
  8360  8359  8360      1
  8361  8359  8361      1
  8362  8359  8362      1
  8363  8360  8363      1
  8364  8360  8364      1
  8365  8360  8365      1
  8366  8365  8366      1
  8367  8365  8367      1
  8368  8365  8368      1
  8369  8366  8369      1
  8370  8366  8370      1
  8371  8366  8371      1
  8372  8371  8372      1
  8373  8371  8373      1
  8374  8371  8374      1
  8375  8372  8375      1
  8376  8372  8376      1
  8377  8372  8377      1
  8378  8377  8378      1
  8379  8377  8379      1
  8380  8377  8380      1
  8381  8378  8381      1
  8382  8378  8382      1
  8383  8378  8383      1
  8384  8383  8384      1
  8385  8383  8385      1
  8386  8383  8386      1
  8387  8384  8387      1
  8388  8384  8388      1
  8389  8384  8389      1
  8390  8389  8390      1
  8391  8389  8391      1
  8392  8389  8392      1
  8393  8390  8393      1
  8394  8390  8394      1
  8395  8390  8395      1
  8396  8395  8396      1
  8397  8395  8397      1
  8398  8395  8398      1
  8399  8396  8399      1
  8400  8396  8400      1
  8401  8396  8401      1
  8402  8401  8402      1
  8403  8401  8403      1
  8404  8401  8404      1
  8405  8402  8405      1
  8406  8402  8406      1
  8407  8402  8407      1
  8408  8407  8408      1
  8409  8407  8409      1
  8410  8407  8410      1
  8411  8408  8411      1
  8412  8408  8412      1
  8413  8408  8413      1
  8414  8413  8414      1
  8415  8413  8415      1
  8416  8413  8416      1
  8417  8414  8417      1
  8418  8414  8418      1
  8419  8414  8419      1
  8420  8419  8420      1
  8421  8419  8421      1
  8422  8419  8422      1
  8423  8420  8423      1
  8424  8420  8424      1
  8425  8420  8425      1
  8426  8425  8426      1
  8427  8425  8427      1
  8428  8425  8428      1
  8429  8426  8429      1
  8430  8426  8430      1
  8431  8426  8431      1
  8432  8431  8432      1
  8433  8431  8433      1
  8434  8431  8434      1
  8435  8432  8435      1
  8436  8432  8436      1
  8437  8432  8437      1
  8438  8437  8438      1
  8439  8437  8439      1
  8440  8437  8440      1
  8441  8438  8441      1
  8442  8438  8442      1
  8443  8438  8443      1
  8444  8443  8444      1
  8445  8443  8445      1
  8446  8443  8446      1
  8447  8444  8447      1
  8448  8444  8448      1
  8449  8444  8449      1
  8450  8449  8450      1
  8451  8449  8451      1
  8452  8449  8452      1
  8453  8450  8453      1
  8454  8450  8454      1
  8455  8450  8455      1
  8456  8455  8456      1
  8457  8455  8457      1
  8458  8455  8458      1
  8459  8456  8459      1
  8460  8456  8460      1
  8461  8456  8461      1
  8462  8461  8462      1
  8463  8461  8463      1
  8464  8461  8464      1
  8465  8462  8465      1
  8466  8462  8466      1
  8467  8462  8467      1
  8468  8467  8468      1
  8469  8467  8469      1
  8470  8467  8470      1
  8471  8468  8471      1
  8472  8468  8472      1
  8473  8468  8473      1
  8474  8473  8474      1
  8475  8473  8475      1
  8476  8473  8476      1
  8477  8474  8477      1
  8478  8474  8478      1
  8479  8474  8479      1
  8480  8479  8480      1
  8481  8479  8481      1
  8482  8479  8482      1
  8483  8480  8483      1
  8484  8480  8484      1
  8485  8480  8485      1
  8486  8485  8486      1
  8487  8485  8487      1
  8488  8485  8488      1
  8489  8486  8489      1
  8490  8486  8490      1
  8491  8486  8491      1
  8492  8491  8492      1
  8493  8491  8493      1
  8494  8491  8494      1
  8495  8492  8495      1
  8496  8492  8496      1
  8497  8492  8497      1
  8498  8497  8498      1
  8499  8497  8499      1
  8500  8497  8500      1
  8501  8498  8501      1
  8502  8498  8502      1
  8503  8498  8503      1
  8504  8503  8504      1
  8505  8503  8505      1
  8506  8503  8506      1
  8507  8504  8507      1
  8508  8504  8508      1
  8509  8504  8509      1
  8510  8509  8510      1
  8511  8509  8511      1
  8512  8509  8512      1
  8513  8510  8513      1
  8514  8510  8514      1
  8515  8510  8515      1
  8516  8515  8516      1
  8517  8515  8517      1
  8518  8515  8518      1
  8519  8516  8519      1
  8520  8516  8520      1
  8521  8516  8521      1
  8522  8521  8522      1
  8523  8521  8523      1
  8524  8521  8524      1
  8525  8522  8525      1
  8526  8522  8526      1
  8527  8522  8527      1
  8528  8527  8528      1
  8529  8527  8529      1
  8530  8527  8530      1
  8531  8528  8531      1
  8532  8528  8532      1
  8533  8528  8533      1
  8534  8533  8534      1
  8535  8533  8535      1
  8536  8533  8536      1
  8537  8534  8537      1
  8538  8534  8538      1
  8539  8534  8539      1
  8540  8539  8540      1
  8541  8539  8541      1
  8542  8539  8542      1
  8543  8540  8543      1
  8544  8540  8544      1
  8545  8540  8545      1
  8546  8545  8546      1
  8547  8545  8547      1
  8548  8545  8548      1
  8549  8546  8549      1
  8550  8546  8550      1
  8551  8546  8551      1
  8552  8551  8552      1
  8553  8551  8553      1
  8554  8551  8554      1
  8555  8552  8555      1
  8556  8552  8556      1
  8557  8552  8557      1
  8558  8557  8558      1
  8559  8557  8559      1
  8560  8557  8560      1
  8561  8558  8561      1
  8562  8558  8562      1
  8563  8558  8563      1
  8564  8563  8564      1
  8565  8563  8565      1
  8566  8563  8566      1
  8567  8564  8567      1
  8568  8564  8568      1
  8569  8564  8569      1
  8570  8569  8570      1
  8571  8569  8571      1
  8572  8569  8572      1
  8573  8570  8573      1
  8574  8570  8574      1
  8575  8570  8575      1
  8576  8575  8576      1
  8577  8575  8577      1
  8578  8575  8578      1
  8579  8576  8579      1
  8580  8576  8580      1
  8581  8576  8581      1
  8582  8581  8582      1
  8583  8581  8583      1
  8584  8581  8584      1
  8585  8582  8585      1
  8586  8582  8586      1
  8587  8582  8587      1
  8588  8587  8588      1
  8589  8587  8589      1
  8590  8587  8590      1
  8591  8588  8591      1
  8592  8588  8592      1
  8593  8588  8593      1
  8594  8593  8594      1
  8595  8593  8595      1
  8596  8593  8596      1
  8597  8594  8597      1
  8598  8594  8598      1
  8599  8594  8599      1
  8600  8599  8600      1
  8601  8599  8601      1
  8602  8599  8602      1
  8603  8600  8603      1
  8604  8600  8604      1
  8605  8600  8605      1
  8606  8605  8606      1
  8607  8605  8607      1
  8608  8605  8608      1
  8609  8606  8609      1
  8610  8606  8610      1
  8611  8606  8611      1
  8612  8611  8612      1
  8613  8611  8613      1
  8614  8611  8614      1
  8615  8612  8615      1
  8616  8612  8616      1
  8617  8612  8617      1
  8618  8617  8618      1
  8619  8617  8619      1
  8620  8617  8620      1
  8621  8618  8621      1
  8622  8618  8622      1
  8623  8618  8623      1
  8624  8623  8624      1
  8625  8623  8625      1
  8626  8623  8626      1
  8627  8624  8627      1
  8628  8624  8628      1
  8629  8624  8629      1
  8630  8629  8630      1
  8631  8629  8631      1
  8632  8629  8632      1
  8633  8630  8633      1
  8634  8630  8634      1
  8635  8630  8635      1
  8636  8635  8636      1
  8637  8635  8637      1
  8638  8635  8638      1
  8639  8636  8639      1
  8640  8636  8640      1
  8641  8636  8641      1
  8642  8641  8642      1
  8643  8641  8643      1
  8644  8641  8644      1
  8645  8642  8645      1
  8646  8642  8646      1
  8647  8642  8647      1
  8648  8647  8648      1
  8649  8647  8649      1
  8650  8647  8650      1
  8651  8648  8651      1
  8652  8648  8652      1
  8653  8648  8653      1
  8654  8653  8654      1
  8655  8653  8655      1
  8656  8653  8656      1
  8657  8654  8657      1
  8658  8654  8658      1
  8659  8654  8659      1
  8660  8659  8660      1
  8661  8659  8661      1
  8662  8659  8662      1
  8663  8660  8663      1
  8664  8660  8664      1
  8665  8660  8665      1
  8666  8665  8666      1
  8667  8665  8667      1
  8668  8665  8668      1
  8669  8666  8669      1
  8670  8666  8670      1
  8671  8666  8671      1
  8672  8671  8672      1
  8673  8671  8673      1
  8674  8671  8674      1
  8675  8672  8675      1
  8676  8672  8676      1
  8677  8672  8677      1
  8678  8677  8678      1
  8679  8677  8679      1
  8680  8677  8680      1
  8681  8678  8681      1
  8682  8678  8682      1
  8683  8678  8683      1
  8684  8683  8684      1
  8685  8683  8685      1
  8686  8683  8686      1
  8687  8684  8687      1
  8688  8684  8688      1
  8689  8684  8689      1
  8690  8689  8690      1
  8691  8689  8691      1
  8692  8689  8692      1
  8693  8690  8693      1
  8694  8690  8694      1
  8695  8690  8695      1
  8696  8695  8696      1
  8697  8695  8697      1
  8698  8695  8698      1
  8699  8696  8699      1
  8700  8696  8700      1
  8701  8696  8701      1
  8702  8701  8702      1
  8703  8701  8703      1
  8704  8701  8704      1
  8705  8702  8705      1
  8706  8702  8706      1
  8707  8702  8707      1
  8708  8707  8708      1
  8709  8707  8709      1
  8710  8707  8710      1
  8711  8708  8711      1
  8712  8708  8712      1
  8713  8708  8713      1
  8714  8713  8714      1
  8715  8713  8715      1
  8716  8713  8716      1
  8717  8714  8717      1
  8718  8714  8718      1
  8719  8714  8719      1
  8720  8719  8720      1
  8721  8719  8721      1
  8722  8719  8722      1
  8723  8720  8723      1
  8724  8720  8724      1
  8725  8720  8725      1
  8726  8725  8726      1
  8727  8725  8727      1
  8728  8725  8728      1
  8729  8726  8729      1
  8730  8726  8730      1
  8731  8726  8731      1
  8732  8731  8732      1
  8733  8731  8733      1
  8734  8731  8734      1
  8735  8732  8735      1
  8736  8732  8736      1
  8737  8732  8737      1
  8738  8737  8738      1
  8739  8737  8739      1
  8740  8737  8740      1
  8741  8738  8741      1
  8742  8738  8742      1
  8743  8738  8743      1
  8744  8743  8744      1
  8745  8743  8745      1
  8746  8743  8746      1
  8747  8744  8747      1
  8748  8744  8748      1
  8749  8744  8749      1
  8750  8749  8750      1
  8751  8749  8751      1
  8752  8749  8752      1
  8753  8750  8753      1
  8754  8750  8754      1
  8755  8750  8755      1
  8756  8755  8756      1
  8757  8755  8757      1
  8758  8755  8758      1
  8759  8756  8759      1
  8760  8756  8760      1
  8761  8756  8761      1
  8762  8761  8762      1
  8763  8761  8763      1
  8764  8761  8764      1
  8765  8762  8765      1
  8766  8762  8766      1
  8767  8762  8767      1
  8768  8767  8768      1
  8769  8767  8769      1
  8770  8767  8770      1
  8771  8768  8771      1
  8772  8768  8772      1
  8773  8768  8773      1
  8774  8773  8774      1
  8775  8773  8775      1
  8776  8773  8776      1
  8777  8774  8777      1
  8778  8774  8778      1
  8779  8774  8779      1
  8780  8779  8780      1
  8781  8779  8781      1
  8782  8779  8782      1
  8783  8780  8783      1
  8784  8780  8784      1
  8785  8780  8785      1
  8786  8785  8786      1
  8787  8785  8787      1
  8788  8785  8788      1
  8789  8786  8789      1
  8790  8786  8790      1
  8791  8786  8791      1
  8792  8791  8792      1
  8793  8791  8793      1
  8794  8791  8794      1
  8795  8792  8795      1
  8796  8792  8796      1
  8797  8792  8797      1
  8798  8797  8798      1
  8799  8797  8799      1
  8800  8797  8800      1
  8801  8798  8801      1
  8802  8798  8802      1
  8803  8798  8803      1
  8804  8803  8804      1
  8805  8803  8805      1
  8806  8803  8806      1
  8807  8804  8807      1
  8808  8804  8808      1
  8809  8804  8809      1
  8810  8809  8810      1
  8811  8809  8811      1
  8812  8809  8812      1
  8813  8810  8813      1
  8814  8810  8814      1
  8815  8810  8815      1
  8816  8815  8816      1
  8817  8815  8817      1
  8818  8815  8818      1
  8819  8816  8819      1
  8820  8816  8820      1
  8821  8816  8821      1
  8822  8821  8822      1
  8823  8821  8823      1
  8824  8821  8824      1
  8825  8822  8825      1
  8826  8822  8826      1
  8827  8822  8827      1
  8828  8827  8828      1
  8829  8827  8829      1
  8830  8827  8830      1
  8831  8828  8831      1
  8832  8828  8832      1
  8833  8828  8833      1
  8834  8833  8834      1
  8835  8833  8835      1
  8836  8833  8836      1
  8837  8834  8837      1
  8838  8834  8838      1
  8839  8834  8839      1
  8840  8839  8840      1
  8841  8839  8841      1
  8842  8839  8842      1
  8843  8840  8843      1
  8844  8840  8844      1
  8845  8840  8845      1
  8846  8845  8846      1
  8847  8845  8847      1
  8848  8845  8848      1
  8849  8846  8849      1
  8850  8846  8850      1
  8851  8846  8851      1
  8852  8851  8852      1
  8853  8851  8853      1
  8854  8851  8854      1
  8855  8852  8855      1
  8856  8852  8856      1
  8857  8852  8857      1
  8858  8857  8858      1
  8859  8857  8859      1
  8860  8857  8860      1
  8861  8858  8861      1
  8862  8858  8862      1
  8863  8858  8863      1
  8864  8863  8864      1
  8865  8863  8865      1
  8866  8863  8866      1
  8867  8864  8867      1
  8868  8864  8868      1
  8869  8864  8869      1
  8870  8869  8870      1
  8871  8869  8871      1
  8872  8869  8872      1
  8873  8870  8873      1
  8874  8870  8874      1
  8875  8870  8875      1
  8876  8875  8876      1
  8877  8875  8877      1
  8878  8875  8878      1
  8879  8876  8879      1
  8880  8876  8880      1
  8881  8876  8881      1
  8882  8881  8882      1
  8883  8881  8883      1
  8884  8881  8884      1
  8885  8882  8885      1
  8886  8882  8886      1
  8887  8882  8887      1
  8888  8887  8888      1
  8889  8887  8889      1
  8890  8887  8890      1
  8891  8888  8891      1
  8892  8888  8892      1
  8893  8888  8893      1
  8894  8893  8894      1
  8895  8893  8895      1
  8896  8893  8896      1
  8897  8894  8897      1
  8898  8894  8898      1
  8899  8894  8899      1
  8900  8899  8900      1
  8901  8899  8901      1
  8902  8899  8902      1
  8903  8900  8903      1
  8904  8900  8904      1
  8905  8900  8905      1
  8906  8905  8906      1
  8907  8905  8907      1
  8908  8905  8908      1
  8909  8906  8909      1
  8910  8906  8910      1
  8911  8906  8911      1
  8912  8911  8912      1
  8913  8911  8913      1
  8914  8911  8914      1
  8915  8912  8915      1
  8916  8912  8916      1
  8917  8912  8917      1
  8918  8917  8918      1
  8919  8917  8919      1
  8920  8917  8920      1
  8921  8918  8921      1
  8922  8918  8922      1
  8923  8918  8923      1
  8924  8923  8924      1
  8925  8923  8925      1
  8926  8923  8926      1
  8927  8924  8927      1
  8928  8924  8928      1
  8929  8924  8929      1
  8930  8929  8930      1
  8931  8929  8931      1
  8932  8929  8932      1
  8933  8930  8933      1
  8934  8930  8934      1
  8935  8930  8935      1
  8936  8935  8936      1
  8937  8935  8937      1
  8938  8935  8938      1
  8939  8936  8939      1
  8940  8936  8940      1
  8941  8936  8941      1
  8942  8941  8942      1
  8943  8941  8943      1
  8944  8941  8944      1
  8945  8942  8945      1
  8946  8942  8946      1
  8947  8942  8947      1
  8948  8947  8948      1
  8949  8947  8949      1
  8950  8947  8950      1
  8951  8948  8951      1
  8952  8948  8952      1
  8953  8948  8953      1
  8954  8953  8954      1
  8955  8953  8955      1
  8956  8953  8956      1
  8957  8954  8957      1
  8958  8954  8958      1
  8959  8954  8959      1
  8960  8959  8960      1
  8961  8959  8961      1
  8962  8959  8962      1
  8963  8960  8963      1
  8964  8960  8964      1
  8965  8960  8965      1
  8966  8965  8966      1
  8967  8965  8967      1
  8968  8965  8968      1
  8969  8966  8969      1
  8970  8966  8970      1
  8971  8966  8971      1
  8972  8971  8972      1
  8973  8971  8973      1
  8974  8971  8974      1
  8975  8972  8975      1
  8976  8972  8976      1
  8977  8972  8977      1
  8978  8977  8978      1
  8979  8977  8979      1
  8980  8977  8980      1
  8981  8978  8981      1
  8982  8978  8982      1
  8983  8978  8983      1
  8984  8983  8984      1
  8985  8983  8985      1
  8986  8983  8986      1
  8987  8984  8987      1
  8988  8984  8988      1
  8989  8984  8989      1
  8990  8989  8990      1
  8991  8989  8991      1
  8992  8989  8992      1
  8993  8990  8993      1
  8994  8990  8994      1
  8995  8990  8995      1
  8996  8995  8996      1
  8997  8995  8997      1
  8998  8995  8998      1
  8999  8996  8999      1
  9000  8996  9000      1
  9001  8996  9001      1
  9002  9001  9002      1
  9003  9001  9003      1
  9004  9001  9004      1
  9005  9002  9005      1
  9006  9002  9006      1
  9007  9002  9007      1
  9008  9007  9008      1
  9009  9007  9009      1
  9010  9007  9010      1
  9011  9008  9011      1
  9012  9008  9012      1
  9013  9008  9013      1
  9014  9013  9014      1
  9015  9013  9015      1
  9016  9013  9016      1
  9017  9014  9017      1
  9018  9014  9018      1
  9019  9014  9019      1
  9020  9019  9020      1
  9021  9019  9021      1
  9022  9019  9022      1
  9023  9020  9023      1
  9024  9020  9024      1
  9025  9020  9025      1
  9026  9025  9026      1
  9027  9025  9027      1
  9028  9025  9028      1
  9029  9026  9029      1
  9030  9026  9030      1
  9031  9026  9031      1
  9032  9031  9032      1
  9033  9031  9033      1
  9034  9031  9034      1
  9035  9032  9035      1
  9036  9032  9036      1
  9037  9032  9037      1
  9038  9037  9038      1
  9039  9037  9039      1
  9040  9037  9040      1
  9041  9038  9041      1
  9042  9038  9042      1
  9043  9038  9043      1
  9044  9043  9044      1
  9045  9043  9045      1
  9046  9043  9046      1
  9047  9044  9047      1
  9048  9044  9048      1
  9049  9044  9049      1
  9050  9049  9050      1
  9051  9049  9051      1
  9052  9049  9052      1
  9053  9050  9053      1
  9054  9050  9054      1
  9055  9050  9055      1
  9056  9055  9056      1
  9057  9055  9057      1
  9058  9055  9058      1
  9059  9056  9059      1
  9060  9056  9060      1
  9061  9056  9061      1
  9062  9061  9062      1
  9063  9061  9063      1
  9064  9061  9064      1
  9065  9062  9065      1
  9066  9062  9066      1
  9067  9062  9067      1
  9068  9067  9068      1
  9069  9067  9069      1
  9070  9067  9070      1
  9071  9068  9071      1
  9072  9068  9072      1
  9073  9068  9073      1
  9074  9073  9074      1
  9075  9073  9075      1
  9076  9073  9076      1
  9077  9074  9077      1
  9078  9074  9078      1
  9079  9074  9079      1
  9080  9079  9080      1
  9081  9079  9081      1
  9082  9079  9082      1
  9083  9080  9083      1
  9084  9080  9084      1
  9085  9080  9085      1
  9086  9085  9086      1
  9087  9085  9087      1
  9088  9085  9088      1
  9089  9086  9089      1
  9090  9086  9090      1
  9091  9086  9091      1
  9092  9091  9092      1
  9093  9091  9093      1
  9094  9091  9094      1
  9095  9092  9095      1
  9096  9092  9096      1
  9097  9092  9097      1
  9098  9097  9098      1
  9099  9097  9099      1
  9100  9097  9100      1
  9101  9098  9101      1
  9102  9098  9102      1
  9103  9098  9103      1
  9104  9103  9104      1
  9105  9103  9105      1
  9106  9103  9106      1
  9107  9104  9107      1
  9108  9104  9108      1
  9109  9104  9109      1
  9110  9109  9110      1
  9111  9109  9111      1
  9112  9109  9112      1
  9113  9110  9113      1
  9114  9110  9114      1
  9115  9110  9115      1
  9116  9115  9116      1
  9117  9115  9117      1
  9118  9115  9118      1
  9119  9116  9119      1
  9120  9116  9120      1
  9121  9116  9121      1
  9122  9121  9122      1
  9123  9121  9123      1
  9124  9121  9124      1
  9125  9122  9125      1
  9126  9122  9126      1
  9127  9122  9127      1
  9128  9127  9128      1
  9129  9127  9129      1
  9130  9127  9130      1
  9131  9128  9131      1
  9132  9128  9132      1
  9133  9128  9133      1
  9134  9133  9134      1
  9135  9133  9135      1
  9136  9133  9136      1
  9137  9134  9137      1
  9138  9134  9138      1
  9139  9134  9139      1
  9140  9139  9140      1
  9141  9139  9141      1
  9142  9139  9142      1
  9143  9140  9143      1
  9144  9140  9144      1
  9145  9140  9145      1
  9146  9145  9146      1
  9147  9145  9147      1
  9148  9145  9148      1
  9149  9146  9149      1
  9150  9146  9150      1
  9151  9146  9151      1
  9152  9151  9152      1
  9153  9151  9153      1
  9154  9151  9154      1
  9155  9152  9155      1
  9156  9152  9156      1
  9157  9152  9157      1
  9158  9157  9158      1
  9159  9157  9159      1
  9160  9157  9160      1
  9161  9158  9161      1
  9162  9158  9162      1
  9163  9158  9163      1
  9164  9163  9164      1
  9165  9163  9165      1
  9166  9163  9166      1
  9167  9164  9167      1
  9168  9164  9168      1
  9169  9164  9169      1
  9170  9169  9170      1
  9171  9169  9171      1
  9172  9169  9172      1
  9173  9170  9173      1
  9174  9170  9174      1
  9175  9170  9175      1
  9176  9175  9176      1
  9177  9175  9177      1
  9178  9175  9178      1
  9179  9176  9179      1
  9180  9176  9180      1
  9181  9176  9181      1
  9182  9181  9182      1
  9183  9181  9183      1
  9184  9181  9184      1
  9185  9182  9185      1
  9186  9182  9186      1
  9187  9182  9187      1
  9188  9187  9188      1
  9189  9187  9189      1
  9190  9187  9190      1
  9191  9188  9191      1
  9192  9188  9192      1
  9193  9188  9193      1
  9194  9193  9194      1
  9195  9193  9195      1
  9196  9193  9196      1
  9197  9194  9197      1
  9198  9194  9198      1
  9199  9194  9199      1
  9200  9199  9200      1
  9201  9199  9201      1
  9202  9199  9202      1
  9203  9200  9203      1
  9204  9200  9204      1
  9205  9200  9205      1
  9206  9205  9206      1
  9207  9205  9207      1
  9208  9205  9208      1
  9209  9206  9209      1
  9210  9206  9210      1
  9211  9206  9211      1
  9212  9211  9212      1
  9213  9211  9213      1
  9214  9211  9214      1
  9215  9212  9215      1
  9216  9212  9216      1
  9217  9212  9217      1
  9218  9217  9218      1
  9219  9217  9219      1
  9220  9217  9220      1
  9221  9218  9221      1
  9222  9218  9222      1
  9223  9218  9223      1
  9224  9223  9224      1
  9225  9223  9225      1
  9226  9223  9226      1
  9227  9224  9227      1
  9228  9224  9228      1
  9229  9224  9229      1
  9230  9229  9230      1
  9231  9229  9231      1
  9232  9229  9232      1
  9233  9230  9233      1
  9234  9230  9234      1
  9235  9230  9235      1
  9236  9235  9236      1
  9237  9235  9237      1
  9238  9235  9238      1
  9239  9236  9239      1
  9240  9236  9240      1
  9241  9236  9241      1
  9242  9241  9242      1
  9243  9241  9243      1
  9244  9241  9244      1
  9245  9242  9245      1
  9246  9242  9246      1
  9247  9242  9247      1
  9248  9247  9248      1
  9249  9247  9249      1
  9250  9247  9250      1
  9251  9248  9251      1
  9252  9248  9252      1
  9253  9248  9253      1
  9254  9253  9254      1
  9255  9253  9255      1
  9256  9253  9256      1
  9257  9254  9257      1
  9258  9254  9258      1
  9259  9254  9259      1
  9260  9259  9260      1
  9261  9259  9261      1
  9262  9259  9262      1
  9263  9260  9263      1
  9264  9260  9264      1
  9265  9260  9265      1
  9266  9265  9266      1
  9267  9265  9267      1
  9268  9265  9268      1
  9269  9266  9269      1
  9270  9266  9270      1
  9271  9266  9271      1
  9272  9271  9272      1
  9273  9271  9273      1
  9274  9271  9274      1
  9275  9272  9275      1
  9276  9272  9276      1
  9277  9272  9277      1
  9278  9277  9278      1
  9279  9277  9279      1
  9280  9277  9280      1
  9281  9278  9281      1
  9282  9278  9282      1
  9283  9278  9283      1
  9284  9283  9284      1
  9285  9283  9285      1
  9286  9283  9286      1
  9287  9284  9287      1
  9288  9284  9288      1
  9289  9284  9289      1
  9290  9289  9290      1
  9291  9289  9291      1
  9292  9289  9292      1
  9293  9290  9293      1
  9294  9290  9294      1
  9295  9290  9295      1
  9296  9295  9296      1
  9297  9295  9297      1
  9298  9295  9298      1
  9299  9296  9299      1
  9300  9296  9300      1
  9301  9296  9301      1
  9302  9301  9302      1
  9303  9301  9303      1
  9304  9301  9304      1
  9305  9302  9305      1
  9306  9302  9306      1
  9307  9302  9307      1
  9308  9307  9308      1
  9309  9307  9309      1
  9310  9307  9310      1
  9311  9308  9311      1
  9312  9308  9312      1
  9313  9308  9313      1
  9314  9313  9314      1
  9315  9313  9315      1
  9316  9313  9316      1
  9317  9314  9317      1
  9318  9314  9318      1
  9319  9314  9319      1
  9320  9319  9320      1
  9321  9319  9321      1
  9322  9319  9322      1
  9323  9320  9323      1
  9324  9320  9324      1
  9325  9320  9325      1
  9326  9325  9326      1
  9327  9325  9327      1
  9328  9325  9328      1
  9329  9326  9329      1
  9330  9326  9330      1
  9331  9326  9331      1
  9332  9331  9332      1
  9333  9331  9333      1
  9334  9331  9334      1
  9335  9332  9335      1
  9336  9332  9336      1
  9337  9332  9337      1
  9338  9337  9338      1
  9339  9337  9339      1
  9340  9337  9340      1
  9341  9338  9341      1
  9342  9338  9342      1
  9343  9338  9343      1
  9344  9343  9344      1
  9345  9343  9345      1
  9346  9343  9346      1
  9347  9344  9347      1
  9348  9344  9348      1
  9349  9344  9349      1
  9350  9349  9350      1
  9351  9349  9351      1
  9352  9349  9352      1
  9353  9350  9353      1
  9354  9350  9354      1
  9355  9350  9355      1
  9356  9355  9356      1
  9357  9355  9357      1
  9358  9355  9358      1
  9359  9356  9359      1
  9360  9356  9360      1
  9361  9356  9361      1
  9362  9361  9362      1
  9363  9361  9363      1
  9364  9361  9364      1
  9365  9362  9365      1
  9366  9362  9366      1
  9367  9362  9367      1
  9368  9367  9368      1
  9369  9367  9369      1
  9370  9367  9370      1
  9371  9368  9371      1
  9372  9368  9372      1
  9373  9368  9373      1
  9374  9373  9374      1
  9375  9373  9375      1
  9376  9373  9376      1
  9377  9374  9377      1
  9378  9374  9378      1
  9379  9374  9379      1
  9380  9379  9380      1
  9381  9379  9381      1
  9382  9379  9382      1
  9383  9380  9383      1
  9384  9380  9384      1
  9385  9380  9385      1
  9386  9385  9386      1
  9387  9385  9387      1
  9388  9385  9388      1
  9389  9386  9389      1
  9390  9386  9390      1
  9391  9386  9391      1
  9392  9391  9392      1
  9393  9391  9393      1
  9394  9391  9394      1
  9395  9392  9395      1
  9396  9392  9396      1
  9397  9392  9397      1
  9398  9397  9398      1
  9399  9397  9399      1
  9400  9397  9400      1
  9401  9398  9401      1
  9402  9398  9402      1
  9403  9398  9403      1
  9404  9403  9404      1
  9405  9403  9405      1
  9406  9403  9406      1
  9407  9404  9407      1
  9408  9404  9408      1
  9409  9404  9409      1
  9410  9409  9410      1
  9411  9409  9411      1
  9412  9409  9412      1
  9413  9410  9413      1
  9414  9410  9414      1
  9415  9410  9415      1
  9416  9415  9416      1
  9417  9415  9417      1
  9418  9415  9418      1
  9419  9416  9419      1
  9420  9416  9420      1
  9421  9416  9421      1
  9422  9421  9422      1
  9423  9421  9423      1
  9424  9421  9424      1
  9425  9422  9425      1
  9426  9422  9426      1
  9427  9422  9427      1
  9428  9427  9428      1
  9429  9427  9429      1
  9430  9427  9430      1
  9431  9428  9431      1
  9432  9428  9432      1
  9433  9428  9433      1
  9434  9433  9434      1
  9435  9433  9435      1
  9436  9433  9436      1
  9437  9434  9437      1
  9438  9434  9438      1
  9439  9434  9439      1
  9440  9439  9440      1
  9441  9439  9441      1
  9442  9439  9442      1
  9443  9440  9443      1
  9444  9440  9444      1
  9445  9440  9445      1
  9446  9445  9446      1
  9447  9445  9447      1
  9448  9445  9448      1
  9449  9446  9449      1
  9450  9446  9450      1
  9451  9446  9451      1
  9452  9451  9452      1
  9453  9451  9453      1
  9454  9451  9454      1
  9455  9452  9455      1
  9456  9452  9456      1
  9457  9452  9457      1
  9458  9457  9458      1
  9459  9457  9459      1
  9460  9457  9460      1
  9461  9458  9461      1
  9462  9458  9462      1
  9463  9458  9463      1
  9464  9463  9464      1
  9465  9463  9465      1
  9466  9463  9466      1
  9467  9464  9467      1
  9468  9464  9468      1
  9469  9464  9469      1
  9470  9469  9470      1
  9471  9469  9471      1
  9472  9469  9472      1
  9473  9470  9473      1
  9474  9470  9474      1
  9475  9470  9475      1
  9476  9475  9476      1
  9477  9475  9477      1
  9478  9475  9478      1
  9479  9476  9479      1
  9480  9476  9480      1
  9481  9476  9481      1
  9482  9481  9482      1
  9483  9481  9483      1
  9484  9481  9484      1
  9485  9482  9485      1
  9486  9482  9486      1
  9487  9482  9487      1
  9488  9487  9488      1
  9489  9487  9489      1
  9490  9487  9490      1
  9491  9488  9491      1
  9492  9488  9492      1
  9493  9488  9493      1
  9494  9493  9494      1
  9495  9493  9495      1
  9496  9493  9496      1
  9497  9494  9497      1
  9498  9494  9498      1
  9499  9494  9499      1
  9500  9499  9500      1
  9501  9499  9501      1
  9502  9499  9502      1
  9503  9500  9503      1
  9504  9500  9504      1
  9505  9500  9505      1
  9506  9505  9506      1
  9507  9505  9507      1
  9508  9505  9508      1
  9509  9506  9509      1
  9510  9506  9510      1
  9511  9506  9511      1
  9512  9511  9512      1
  9513  9511  9513      1
  9514  9511  9514      1
  9515  9512  9515      1
  9516  9512  9516      1
  9517  9512  9517      1
  9518  9517  9518      1
  9519  9517  9519      1
  9520  9517  9520      1
  9521  9518  9521      1
  9522  9518  9522      1
  9523  9518  9523      1
  9524  9523  9524      1
  9525  9523  9525      1
  9526  9523  9526      1
  9527  9524  9527      1
  9528  9524  9528      1
  9529  9524  9529      1
  9530  9529  9530      1
  9531  9529  9531      1
  9532  9529  9532      1
  9533  9530  9533      1
  9534  9530  9534      1
  9535  9530  9535      1
  9536  9535  9536      1
  9537  9535  9537      1
  9538  9535  9538      1
  9539  9536  9539      1
  9540  9536  9540      1
  9541  9536  9541      1
  9542  9541  9542      1
  9543  9541  9543      1
  9544  9541  9544      1
  9545  9542  9545      1
  9546  9542  9546      1
  9547  9542  9547      1
  9548  9547  9548      1
  9549  9547  9549      1
  9550  9547  9550      1
  9551  9548  9551      1
  9552  9548  9552      1
  9553  9548  9553      1
  9554  9553  9554      1
  9555  9553  9555      1
  9556  9553  9556      1
  9557  9554  9557      1
  9558  9554  9558      1
  9559  9554  9559      1
  9560  9559  9560      1
  9561  9559  9561      1
  9562  9559  9562      1
  9563  9560  9563      1
  9564  9560  9564      1
  9565  9560  9565      1
  9566  9565  9566      1
  9567  9565  9567      1
  9568  9565  9568      1
  9569  9566  9569      1
  9570  9566  9570      1
  9571  9566  9571      1
  9572  9571  9572      1
  9573  9571  9573      1
  9574  9571  9574      1
  9575  9572  9575      1
  9576  9572  9576      1
  9577  9572  9577      1
  9578  9577  9578      1
  9579  9577  9579      1
  9580  9577  9580      1
  9581  9578  9581      1
  9582  9578  9582      1
  9583  9578  9583      1
  9584  9583  9584      1
  9585  9583  9585      1
  9586  9583  9586      1
  9587  9584  9587      1
  9588  9584  9588      1
  9589  9584  9589      1
  9590  9589  9590      1
  9591  9589  9591      1
  9592  9589  9592      1
  9593  9590  9593      1
  9594  9590  9594      1
  9595  9590  9595      1
  9596  9595  9596      1
  9597  9595  9597      1
  9598  9595  9598      1
  9599  9596  9599      1
  9600  9596  9600      1
  9601  9596  9601      1
  9602  9601  9602      1
  9603  9601  9603      1
  9604  9601  9604      1
  9605  9602  9605      1
  9606  9602  9606      1
  9607  9602  9607      1
  9608  9607  9608      1
  9609  9607  9609      1
  9610  9607  9610      1
  9611  9608  9611      1
  9612  9608  9612      1
  9613  9608  9613      1
  9614  9613  9614      1
  9615  9613  9615      1
  9616  9613  9616      1
  9617  9614  9617      1
  9618  9614  9618      1
  9619  9614  9619      1
  9620  9619  9620      1
  9621  9619  9621      1
  9622  9619  9622      1
  9623  9620  9623      1
  9624  9620  9624      1
  9625  9620  9625      1
  9626  9625  9626      1
  9627  9625  9627      1
  9628  9625  9628      1
  9629  9626  9629      1
  9630  9626  9630      1
  9631  9626  9631      1
  9632  9631  9632      1
  9633  9631  9633      1
  9634  9631  9634      1
  9635  9632  9635      1
  9636  9632  9636      1
  9637  9632  9637      1
  9638  9637  9638      1
  9639  9637  9639      1
  9640  9637  9640      1
  9641  9638  9641      1
  9642  9638  9642      1
  9643  9638  9643      1
  9644  9643  9644      1
  9645  9643  9645      1
  9646  9643  9646      1
  9647  9644  9647      1
  9648  9644  9648      1
  9649  9644  9649      1
  9650  9649  9650      1
  9651  9649  9651      1
  9652  9649  9652      1
  9653  9650  9653      1
  9654  9650  9654      1
  9655  9650  9655      1
  9656  9655  9656      1
  9657  9655  9657      1
  9658  9655  9658      1
  9659  9656  9659      1
  9660  9656  9660      1
  9661  9656  9661      1
  9662  9661  9662      1
  9663  9661  9663      1
  9664  9661  9664      1
  9665  9662  9665      1
  9666  9662  9666      1
  9667  9662  9667      1
  9668  9667  9668      1
  9669  9667  9669      1
  9670  9667  9670      1
  9671  9668  9671      1
  9672  9668  9672      1
  9673  9668  9673      1
  9674  9673  9674      1
  9675  9673  9675      1
  9676  9673  9676      1
  9677  9674  9677      1
  9678  9674  9678      1
  9679  9674  9679      1
  9680  9679  9680      1
  9681  9679  9681      1
  9682  9679  9682      1
  9683  9680  9683      1
  9684  9680  9684      1
  9685  9680  9685      1
  9686  9685  9686      1
  9687  9685  9687      1
  9688  9685  9688      1
  9689  9686  9689      1
  9690  9686  9690      1
  9691  9686  9691      1
  9692  9691  9692      1
  9693  9691  9693      1
  9694  9691  9694      1
  9695  9692  9695      1
  9696  9692  9696      1
  9697  9692  9697      1
  9698  9697  9698      1
  9699  9697  9699      1
  9700  9697  9700      1
  9701  9698  9701      1
  9702  9698  9702      1
  9703  9698  9703      1
  9704  9703  9704      1
  9705  9703  9705      1
  9706  9703  9706      1
  9707  9704  9707      1
  9708  9704  9708      1
  9709  9704  9709      1
  9710  9709  9710      1
  9711  9709  9711      1
  9712  9709  9712      1
  9713  9710  9713      1
  9714  9710  9714      1
  9715  9710  9715      1
  9716  9715  9716      1
  9717  9715  9717      1
  9718  9715  9718      1
  9719  9716  9719      1
  9720  9716  9720      1
  9721  9716  9721      1
  9722  9721  9722      1
  9723  9721  9723      1
  9724  9721  9724      1
  9725  9722  9725      1
  9726  9722  9726      1
  9727  9722  9727      1
  9728  9727  9728      1
  9729  9727  9729      1
  9730  9727  9730      1
  9731  9728  9731      1
  9732  9728  9732      1
  9733  9728  9733      1
  9734  9733  9734      1
  9735  9733  9735      1
  9736  9733  9736      1
  9737  9734  9737      1
  9738  9734  9738      1
  9739  9734  9739      1
  9740  9739  9740      1
  9741  9739  9741      1
  9742  9739  9742      1
  9743  9740  9743      1
  9744  9740  9744      1
  9745  9740  9745      1
  9746  9745  9746      1
  9747  9745  9747      1
  9748  9745  9748      1
  9749  9746  9749      1
  9750  9746  9750      1
  9751  9746  9751      1
  9752  9751  9752      1
  9753  9751  9753      1
  9754  9751  9754      1
  9755  9752  9755      1
  9756  9752  9756      1
  9757  9752  9757      1
  9758  9757  9758      1
  9759  9757  9759      1
  9760  9757  9760      1
  9761  9758  9761      1
  9762  9758  9762      1
  9763  9758  9763      1
  9764  9763  9764      1
  9765  9763  9765      1
  9766  9763  9766      1
  9767  9764  9767      1
  9768  9764  9768      1
  9769  9764  9769      1
  9770  9769  9770      1
  9771  9769  9771      1
  9772  9769  9772      1
  9773  9770  9773      1
  9774  9770  9774      1
  9775  9770  9775      1
  9776  9775  9776      1
  9777  9775  9777      1
  9778  9775  9778      1
  9779  9776  9779      1
  9780  9776  9780      1
  9781  9776  9781      1
  9782  9781  9782      1
  9783  9781  9783      1
  9784  9781  9784      1
  9785  9782  9785      1
  9786  9782  9786      1
  9787  9782  9787      1
  9788  9787  9788      1
  9789  9787  9789      1
  9790  9787  9790      1
  9791  9788  9791      1
  9792  9788  9792      1
  9793  9788  9793      1
  9794  9793  9794      1
  9795  9793  9795      1
  9796  9793  9796      1
  9797  9794  9797      1
  9798  9794  9798      1
  9799  9794  9799      1
  9800  9799  9800      1
  9801  9799  9801      1
  9802  9799  9802      1
  9803  9800  9803      1
  9804  9800  9804      1
  9805  9800  9805      1
  9806  9805  9806      1
  9807  9805  9807      1
  9808  9805  9808      1
  9809  9806  9809      1
  9810  9806  9810      1
  9811  9806  9811      1
  9812  9811  9812      1
  9813  9811  9813      1
  9814  9811  9814      1
  9815  9812  9815      1
  9816  9812  9816      1
  9817  9812  9817      1
  9818  9817  9818      1
  9819  9817  9819      1
  9820  9817  9820      1
  9821  9818  9821      1
  9822  9818  9822      1
  9823  9818  9823      1
  9824  9823  9824      1
  9825  9823  9825      1
  9826  9823  9826      1
  9827  9824  9827      1
  9828  9824  9828      1
  9829  9824  9829      1
  9830  9829  9830      1
  9831  9829  9831      1
  9832  9829  9832      1
  9833  9830  9833      1
  9834  9830  9834      1
  9835  9830  9835      1
  9836  9835  9836      1
  9837  9835  9837      1
  9838  9835  9838      1
  9839  9836  9839      1
  9840  9836  9840      1
  9841  9836  9841      1
  9842  9841  9842      1
  9843  9841  9843      1
  9844  9841  9844      1
  9845  9842  9845      1
  9846  9842  9846      1
  9847  9842  9847      1
  9848  9847  9848      1
  9849  9847  9849      1
  9850  9847  9850      1
  9851  9848  9851      1
  9852  9848  9852      1
  9853  9848  9853      1
  9854  9853  9854      1
  9855  9853  9855      1
  9856  9853  9856      1
  9857  9854  9857      1
  9858  9854  9858      1
  9859  9854  9859      1
  9860  9859  9860      1
  9861  9859  9861      1
  9862  9859  9862      1
  9863  9860  9863      1
  9864  9860  9864      1
  9865  9860  9865      1
  9866  9865  9866      1
  9867  9865  9867      1
  9868  9865  9868      1
  9869  9866  9869      1
  9870  9866  9870      1
  9871  9866  9871      1
  9872  9871  9872      1
  9873  9871  9873      1
  9874  9871  9874      1
  9875  9872  9875      1
  9876  9872  9876      1
  9877  9872  9877      1
  9878  9877  9878      1
  9879  9877  9879      1
  9880  9877  9880      1
  9881  9878  9881      1
  9882  9878  9882      1
  9883  9878  9883      1
  9884  9883  9884      1
  9885  9883  9885      1
  9886  9883  9886      1
  9887  9884  9887      1
  9888  9884  9888      1
  9889  9884  9889      1
  9890  9889  9890      1
  9891  9889  9891      1
  9892  9889  9892      1
  9893  9890  9893      1
  9894  9890  9894      1
  9895  9890  9895      1
  9896  9895  9896      1
  9897  9895  9897      1
  9898  9895  9898      1
  9899  9896  9899      1
  9900  9896  9900      1
  9901  9896  9901      1
  9902  9901  9902      1
  9903  9901  9903      1
  9904  9901  9904      1
  9905  9902  9905      1
  9906  9902  9906      1
  9907  9902  9907      1
  9908  9907  9908      1
  9909  9907  9909      1
  9910  9907  9910      1
  9911  9908  9911      1
  9912  9908  9912      1
  9913  9908  9913      1
  9914  9913  9914      1
  9915  9913  9915      1
  9916  9913  9916      1
  9917  9914  9917      1
  9918  9914  9918      1
  9919  9914  9919      1
  9920  9919  9920      1
  9921  9919  9921      1
  9922  9919  9922      1
  9923  9920  9923      1
  9924  9920  9924      1
  9925  9920  9925      1
  9926  9925  9926      1
  9927  9925  9927      1
  9928  9925  9928      1
  9929  9926  9929      1
  9930  9926  9930      1
  9931  9926  9931      1
  9932  9931  9932      1
  9933  9931  9933      1
  9934  9931  9934      1
  9935  9932  9935      1
  9936  9932  9936      1
  9937  9932  9937      1
  9938  9937  9938      1
  9939  9937  9939      1
  9940  9937  9940      1
  9941  9938  9941      1
  9942  9938  9942      1
  9943  9938  9943      1
  9944  9943  9944      1
  9945  9943  9945      1
  9946  9943  9946      1
  9947  9944  9947      1
  9948  9944  9948      1
  9949  9944  9949      1
  9950  9949  9950      1
  9951  9949  9951      1
  9952  9949  9952      1
  9953  9950  9953      1
  9954  9950  9954      1
  9955  9950  9955      1
  9956  9955  9956      1
  9957  9955  9957      1
  9958  9955  9958      1
  9959  9956  9959      1
  9960  9956  9960      1
  9961  9956  9961      1
  9962  9961  9962      1
  9963  9961  9963      1
  9964  9961  9964      1
  9965  9962  9965      1
  9966  9962  9966      1
  9967  9962  9967      1
  9968  9967  9968      1
  9969  9967  9969      1
  9970  9967  9970      1
  9971  9968  9971      1
  9972  9968  9972      1
  9973  9968  9973      1
  9974  9973  9974      1
  9975  9973  9975      1
  9976  9973  9976      1
  9977  9974  9977      1
  9978  9974  9978      1
  9979  9974  9979      1
  9980  9979  9980      1
  9981  9979  9981      1
  9982  9979  9982      1
  9983  9980  9983      1
  9984  9980  9984      1
  9985  9980  9985      1
  9986  9985  9986      1
  9987  9985  9987      1
  9988  9985  9988      1
  9989  9986  9989      1
  9990  9986  9990      1
  9991  9986  9991      1
  9992  9991  9992      1
  9993  9991  9993      1
  9994  9991  9994      1
  9995  9992  9995      1
  9996  9992  9996      1
  9997  9992  9997      1
  9998  9997  9998      1
  9999  9997  9999      1
 10000  9997 10000      1
 10001  9998 10001      1
 10002  9998 10002      1
 10003  9998 10003      1
 10004 10003 10004      1
 10005 10003 10005      1
 10006 10003 10006      1
 10007 10004 10007      1
 10008 10004 10008      1
 10009 10004 10009      1
 10010 10009 10010      1
 10011 10009 10011      1
 10012 10009 10012      1
 10013 10010 10013      1
 10014 10010 10014      1
 10015 10010 10015      1
 10016 10015 10016      1
 10017 10015 10017      1
 10018 10015 10018      1
 10019 10016 10019      1
 10020 10016 10020      1
 10021 10016 10021      1
 10022 10021 10022      1
 10023 10021 10023      1
 10024 10021 10024      1
 10025 10022 10025      1
 10026 10022 10026      1
 10027 10022 10027      1
 10028 10027 10028      1
 10029 10027 10029      1
 10030 10027 10030      1
 10031 10028 10031      1
 10032 10028 10032      1
 10033 10028 10033      1
 10034 10033 10034      1
 10035 10033 10035      1
 10036 10033 10036      1
 10037 10034 10037      1
 10038 10034 10038      1
 10039 10034 10039      1
 10040 10039 10040      1
 10041 10039 10041      1
 10042 10039 10042      1
 10043 10040 10043      1
 10044 10040 10044      1
 10045 10040 10045      1
 10046 10045 10046      1
 10047 10045 10047      1
 10048 10045 10048      1
 10049 10046 10049      1
 10050 10046 10050      1
 10051 10046 10051      1
 10052 10051 10052      1
 10053 10051 10053      1
 10054 10051 10054      1
 10055 10052 10055      1
 10056 10052 10056      1
 10057 10052 10057      1
 10058 10057 10058      1
 10059 10057 10059      1
 10060 10057 10060      1
 10061 10058 10061      1
 10062 10058 10062      1
 10063 10058 10063      1
 10064 10063 10064      1
 10065 10063 10065      1
 10066 10063 10066      1
 10067 10064 10067      1
 10068 10064 10068      1
 10069 10064 10069      1
 10070 10069 10070      1
 10071 10069 10071      1
 10072 10069 10072      1
 10073 10070 10073      1
 10074 10070 10074      1
 10075 10070 10075      1
 10076 10075 10076      1
 10077 10075 10077      1
 10078 10075 10078      1
 10079 10076 10079      1
 10080 10076 10080      1
 10081 10076 10081      1
 10082 10081 10082      1
 10083 10081 10083      1
 10084 10081 10084      1
 10085 10082 10085      1
 10086 10082 10086      1
 10087 10082 10087      1
 10088 10087 10088      1
 10089 10087 10089      1
 10090 10087 10090      1
 10091 10088 10091      1
 10092 10088 10092      1
 10093 10088 10093      1
 10094 10093 10094      1
 10095 10093 10095      1
 10096 10093 10096      1
 10097 10094 10097      1
 10098 10094 10098      1
 10099 10094 10099      1
 10100 10099 10100      1
 10101 10099 10101      1
 10102 10099 10102      1
 10103 10100 10103      1
 10104 10100 10104      1
 10105 10100 10105      1
 10106 10105 10106      1
 10107 10105 10107      1
 10108 10105 10108      1
 10109 10106 10109      1
 10110 10106 10110      1
 10111 10106 10111      1
 10112 10111 10112      1
 10113 10111 10113      1
 10114 10111 10114      1
 10115 10112 10115      1
 10116 10112 10116      1
 10117 10112 10117      1
 10118 10117 10118      1
 10119 10117 10119      1
 10120 10117 10120      1
 10121 10118 10121      1
 10122 10118 10122      1
 10123 10118 10123      1
 10124 10123 10124      1
 10125 10123 10125      1
 10126 10123 10126      1
 10127 10124 10127      1
 10128 10124 10128      1
 10129 10124 10129      1
 10130 10129 10130      1
 10131 10129 10131      1
 10132 10129 10132      1
 10133 10130 10133      1
 10134 10130 10134      1
 10135 10130 10135      1
 10136 10135 10136      1
 10137 10135 10137      1
 10138 10135 10138      1
 10139 10136 10139      1
 10140 10136 10140      1
 10141 10136 10141      1
 10142 10141 10142      1
 10143 10141 10143      1
 10144 10141 10144      1
 10145 10142 10145      1
 10146 10142 10146      1
 10147 10142 10147      1
 10148 10147 10148      1
 10149 10147 10149      1
 10150 10147 10150      1
 10151 10148 10151      1
 10152 10148 10152      1
 10153 10148 10153      1
 10154 10153 10154      1
 10155 10153 10155      1
 10156 10153 10156      1
 10157 10154 10157      1
 10158 10154 10158      1
 10159 10154 10159      1
 10160 10159 10160      1
 10161 10159 10161      1
 10162 10159 10162      1
 10163 10160 10163      1
 10164 10160 10164      1
 10165 10160 10165      1
 10166 10165 10166      1
 10167 10165 10167      1
 10168 10165 10168      1
 10169 10166 10169      1
 10170 10166 10170      1
 10171 10166 10171      1
 10172 10171 10172      1
 10173 10171 10173      1
 10174 10171 10174      1
 10175 10172 10175      1
 10176 10172 10176      1
 10177 10172 10177      1
 10178 10177 10178      1
 10179 10177 10179      1
 10180 10177 10180      1
 10181 10178 10181      1
 10182 10178 10182      1
 10183 10178 10183      1
 10184 10183 10184      1
 10185 10183 10185      1
 10186 10183 10186      1
 10187 10184 10187      1
 10188 10184 10188      1
 10189 10184 10189      1
 10190 10189 10190      1
 10191 10189 10191      1
 10192 10189 10192      1
 10193 10190 10193      1
 10194 10190 10194      1
 10195 10190 10195      1
 10196 10195 10196      1
 10197 10195 10197      1
 10198 10195 10198      1
 10199 10196 10199      1
 10200 10196 10200      1
 10201 10196 10201      1
 10202 10201 10202      1
 10203 10201 10203      1
 10204 10201 10204      1
 10205 10202 10205      1
 10206 10202 10206      1
 10207 10202 10207      1
 10208 10207 10208      1
 10209 10207 10209      1
 10210 10207 10210      1
 10211 10208 10211      1
 10212 10208 10212      1
 10213 10208 10213      1
 10214 10213 10214      1
 10215 10213 10215      1
 10216 10213 10216      1
 10217 10214 10217      1
 10218 10214 10218      1
 10219 10214 10219      1
 10220 10219 10220      1
 10221 10219 10221      1
 10222 10219 10222      1
 10223 10220 10223      1
 10224 10220 10224      1
 10225 10220 10225      1
 10226 10225 10226      1
 10227 10225 10227      1
 10228 10225 10228      1
 10229 10226 10229      1
 10230 10226 10230      1
 10231 10226 10231      1
 10232 10231 10232      1
 10233 10231 10233      1
 10234 10231 10234      1
 10235 10232 10235      1
 10236 10232 10236      1
 10237 10232 10237      1
 10238 10237 10238      1
 10239 10237 10239      1
 10240 10237 10240      1
 10241 10238 10241      1
 10242 10238 10242      1
 10243 10238 10243      1
 10244 10243 10244      1
 10245 10243 10245      1
 10246 10243 10246      1
 10247 10244 10247      1
 10248 10244 10248      1
 10249 10244 10249      1
 10250 10249 10250      1
 10251 10249 10251      1
 10252 10249 10252      1
 10253 10250 10253      1
 10254 10250 10254      1
 10255 10250 10255      1
 10256 10255 10256      1
 10257 10255 10257      1
 10258 10255 10258      1
 10259 10256 10259      1
 10260 10256 10260      1
 10261 10256 10261      1
 10262 10261 10262      1
 10263 10261 10263      1
 10264 10261 10264      1
 10265 10262 10265      1
 10266 10262 10266      1
 10267 10262 10267      1
 10268 10267 10268      1
 10269 10267 10269      1
 10270 10267 10270      1
 10271 10268 10271      1
 10272 10268 10272      1
 10273 10268 10273      1
 10274 10273 10274      1
 10275 10273 10275      1
 10276 10273 10276      1
 10277 10274 10277      1
 10278 10274 10278      1
 10279 10274 10279      1
 10280 10279 10280      1
 10281 10279 10281      1
 10282 10279 10282      1
 10283 10280 10283      1
 10284 10280 10284      1
 10285 10280 10285      1
 10286 10285 10286      1
 10287 10285 10287      1
 10288 10285 10288      1
 10289 10286 10289      1
 10290 10286 10290      1
 10291 10286 10291      1
 10292 10291 10292      1
 10293 10291 10293      1
 10294 10291 10294      1
 10295 10292 10295      1
 10296 10292 10296      1
 10297 10292 10297      1
 10298 10297 10298      1
 10299 10297 10299      1
 10300 10297 10300      1
 10301 10298 10301      1
 10302 10298 10302      1
 10303 10298 10303      1
 10304 10303 10304      1
 10305 10303 10305      1
 10306 10303 10306      1
 10307 10304 10307      1
 10308 10304 10308      1
 10309 10304 10309      1
 10310 10309 10310      1
 10311 10309 10311      1
 10312 10309 10312      1
 10313 10310 10313      1
 10314 10310 10314      1
 10315 10310 10315      1
 10316 10315 10316      1
 10317 10315 10317      1
 10318 10315 10318      1
 10319 10316 10319      1
 10320 10316 10320      1
 10321 10316 10321      1
 10322 10321 10322      1
 10323 10321 10323      1
 10324 10321 10324      1
 10325 10322 10325      1
 10326 10322 10326      1
 10327 10322 10327      1
 10328 10327 10328      1
 10329 10327 10329      1
 10330 10327 10330      1
 10331 10328 10331      1
 10332 10328 10332      1
 10333 10328 10333      1
 10334 10333 10334      1
 10335 10333 10335      1
 10336 10333 10336      1
 10337 10334 10337      1
 10338 10334 10338      1
 10339 10334 10339      1
 10340 10339 10340      1
 10341 10339 10341      1
 10342 10339 10342      1
 10343 10340 10343      1
 10344 10340 10344      1
 10345 10340 10345      1
 10346 10345 10346      1
 10347 10345 10347      1
 10348 10345 10348      1
 10349 10346 10349      1
 10350 10346 10350      1
 10351 10346 10351      1
 10352 10351 10352      1
 10353 10351 10353      1
 10354 10351 10354      1
 10355 10352 10355      1
 10356 10352 10356      1
 10357 10352 10357      1
 10358 10357 10358      1
 10359 10357 10359      1
 10360 10357 10360      1
 10361 10358 10361      1
 10362 10358 10362      1
 10363 10358 10363      1
 10364 10363 10364      1
 10365 10363 10365      1
 10366 10363 10366      1
 10367 10364 10367      1
 10368 10364 10368      1
 10369 10364 10369      1
 10370 10369 10370      1
 10371 10369 10371      1
 10372 10369 10372      1
 10373 10370 10373      1
 10374 10370 10374      1
 10375 10370 10375      1
 10376 10375 10376      1
 10377 10375 10377      1
 10378 10375 10378      1
 10379 10376 10379      1
 10380 10376 10380      1
 10381 10376 10381      1
 10382 10381 10382      1
 10383 10381 10383      1
 10384 10381 10384      1
 10385 10382 10385      1
 10386 10382 10386      1
 10387 10382 10387      1
 10388 10387 10388      1
 10389 10387 10389      1
 10390 10387 10390      1
 10391 10388 10391      1
 10392 10388 10392      1
 10393 10388 10393      1
 10394 10393 10394      1
 10395 10393 10395      1
 10396 10393 10396      1
 10397 10394 10397      1
 10398 10394 10398      1
 10399 10394 10399      1
 10400 10399 10400      1
 10401 10399 10401      1
 10402 10399 10402      1
 10403 10400 10403      1
 10404 10400 10404      1
 10405 10400 10405      1
 10406 10405 10406      1
 10407 10405 10407      1
 10408 10405 10408      1
 10409 10406 10409      1
 10410 10406 10410      1
 10411 10406 10411      1
 10412 10411 10412      1
 10413 10411 10413      1
 10414 10411 10414      1
 10415 10412 10415      1
 10416 10412 10416      1
 10417 10412 10417      1
 10418 10417 10418      1
 10419 10417 10419      1
 10420 10417 10420      1
 10421 10418 10421      1
 10422 10418 10422      1
 10423 10418 10423      1
 10424 10423 10424      1
 10425 10423 10425      1
 10426 10423 10426      1
 10427 10424 10427      1
 10428 10424 10428      1
 10429 10424 10429      1
 10430 10429 10430      1
 10431 10429 10431      1
 10432 10429 10432      1
 10433 10430 10433      1
 10434 10430 10434      1
 10435 10430 10435      1
 10436 10435 10436      1
 10437 10435 10437      1
 10438 10435 10438      1
 10439 10436 10439      1
 10440 10436 10440      1
 10441 10436 10441      1
 10442 10441 10442      1
 10443 10441 10443      1
 10444 10441 10444      1
 10445 10442 10445      1
 10446 10442 10446      1
 10447 10442 10447      1
 10448 10447 10448      1
 10449 10447 10449      1
 10450 10447 10450      1
 10451 10448 10451      1
 10452 10448 10452      1
 10453 10448 10453      H
