###
### Created by PolyChef-cpp17 on Sat Mar 22 20:35:19 2025
###

@<TRIPOS>MOLECULE
NO_INFO
410 409 1 0 0
SMALL
USER_CHARGES


@<TRIPOS>ATOM
      1 C          -0.7202    3.2287    0.6551 C.3       0        0    0.0000
      2 C          -0.1055    4.6155    0.4364 C.3       0        0    0.0000
      3 H          -0.1822    2.7001    1.4518 H         0        0    0.0000
      4 H          -0.6135    2.6224   -0.2530 H         0        0    0.0000
      5 H          -0.7685    5.2266   -0.1885 H         0        0    0.0000
      6 H          -0.0062    5.1385    1.3956 H         0        0    0.0000
      7 C           1.3038    4.5398   -0.2460 C.3       1        0    0.0000
      8 C           1.9086    3.1333   -0.1752 C.3       1        0    0.0000
      9 H           1.2076    4.8556   -1.2922 H         1        0    0.0000
     10 H           1.9716    5.2613    0.2408 H         1        0    0.0000
     11 H           2.2295    2.9129    0.8505 H         1        0    0.0000
     12 H           1.1506    2.3843   -0.4359 H         1        0    0.0000
     13 C           3.1361    2.9653   -1.1357 C.3       2        0    0.0000
     14 C           3.8768    1.6434   -0.9060 C.3       2        0    0.0000
     15 H           2.7840    3.0239   -2.1731 H         2        0    0.0000
     16 H           3.8197    3.8104   -0.9869 H         2        0    0.0000
     17 H           4.1292    1.5332    0.1559 H         2        0    0.0000
     18 H           3.2270    0.7982   -1.1647 H         2        0    0.0000
     19 C           5.1936    1.5455   -1.7510 C.3       3        0    0.0000
     20 C           6.2786    0.7267   -1.0430 C.3       3        0    0.0000
     21 H           4.9572    1.0957   -2.7233 H         3        0    0.0000
     22 H           5.5598    2.5596   -1.9538 H         3        0    0.0000
     23 H           6.5477    1.2019   -0.0916 H         3        0    0.0000
     24 H           5.8969   -0.2725   -0.7993 H         3        0    0.0000
     25 C           7.5721    0.5745   -1.9154 C.3       4        0    0.0000
     26 C           8.8420    0.9435   -1.1407 C.3       4        0    0.0000
     27 H           7.6374   -0.4604   -2.2735 H         4        0    0.0000
     28 H           7.4759    1.2100   -2.8045 H         4        0    0.0000
     29 H           8.9102    2.0325   -1.0269 H         4        0    0.0000
     30 H           8.8005    0.5230   -0.1282 H         4        0    0.0000
     31 C          10.1415    0.4272   -1.8494 C.3       5        0    0.0000
     32 C          10.8194    1.5180   -2.6858 C.3       5        0    0.0000
     33 H          10.8352    0.0524   -1.0866 H         5        0    0.0000
     34 H           9.8813   -0.4276   -2.4858 H         5        0    0.0000
     35 H          10.0791    2.0189   -3.3219 H         5        0    0.0000
     36 H          11.2423    2.2878   -2.0284 H         5        0    0.0000
     37 C          11.9619    0.9462   -3.5942 C.3       6        0    0.0000
     38 C          13.3280    1.5569   -3.2630 C.3       6        0    0.0000
     39 H          11.9977   -0.1436   -3.4734 H         6        0    0.0000
     40 H          11.7085    1.1386   -4.6442 H         6        0    0.0000
     41 H          13.4844    2.4699   -3.8507 H         6        0    0.0000
     42 H          13.3619    1.8524   -2.2070 H         6        0    0.0000
     43 C          14.5074    0.5643   -3.5480 C.3       7        0    0.0000
     44 C          15.8786    1.2156   -3.3370 C.3       7        0    0.0000
     45 H          14.4008   -0.3090   -2.8926 H         7        0    0.0000
     46 H          14.4197    0.1975   -4.5782 H         7        0    0.0000
     47 H          16.0745    1.9460   -4.1318 H         7        0    0.0000
     48 H          15.8902    1.7696   -2.3901 H         7        0    0.0000
     49 C          17.0401    0.1629   -3.3207 C.3       8        0    0.0000
     50 C          18.4148    0.8117   -3.5166 C.3       8        0    0.0000
     51 H          17.0126   -0.3794   -2.3674 H         8        0    0.0000
     52 H          16.8576   -0.5772   -4.1096 H         8        0    0.0000
     53 H          18.9729    0.2817   -4.2984 H         8        0    0.0000
     54 H          18.2967    1.8467   -3.8606 H         8        0    0.0000
     55 C          19.2653    0.8108   -2.1998 C.3       9        0    0.0000
     56 C          20.4186    1.8189   -2.2525 C.3       9        0    0.0000
     57 H          18.6059    1.0375   -1.3528 H         9        0    0.0000
     58 H          19.6568   -0.2002   -2.0324 H         9        0    0.0000
     59 H          20.9836    1.6958   -3.1848 H         9        0    0.0000
     60 H          20.0236    2.8424   -2.2563 H         9        0    0.0000
     61 C          21.4014    1.6611   -1.0415 C.3      10        0    0.0000
     62 C          22.6608    2.5202   -1.1997 C.3      10        0    0.0000
     63 H          20.8732    1.9341   -0.1195 H        10        0    0.0000
     64 H          21.6771    0.6036   -0.9452 H        10        0    0.0000
     65 H          22.9028    2.6406   -2.2629 H        10        0    0.0000
     66 H          22.4821    3.5267   -0.8013 H        10        0    0.0000
     67 C          23.8995    1.8992   -0.4666 C.3      11        0    0.0000
     68 C          24.8259    2.9711    0.1181 C.3      11        0    0.0000
     69 H          23.5425    1.2352    0.3303 H        11        0    0.0000
     70 H          24.4520    1.2710   -1.1763 H        11        0    0.0000
     71 H          25.2671    3.5682   -0.6896 H        11        0    0.0000
     72 H          24.2508    3.6644    0.7443 H        11        0    0.0000
     73 C          25.9813    2.3528    0.9784 C.3      12        0    0.0000
     74 C          27.0653    3.3810    1.3201 C.3      12        0    0.0000
     75 H          25.5532    1.9375    1.8991 H        12        0    0.0000
     76 H          26.4208    1.5117    0.4280 H        12        0    0.0000
     77 H          28.0595    2.9316    1.2055 H        12        0    0.0000
     78 H          27.0180    4.2242    0.6198 H        12        0    0.0000
     79 C          26.9241    3.9296    2.7818 C.3      13        0    0.0000
     80 C          28.1521    4.7347    3.2211 C.3      13        0    0.0000
     81 H          26.0243    4.5545    2.8396 H        13        0    0.0000
     82 H          26.7651    3.0844    3.4629 H        13        0    0.0000
     83 H          27.8568    5.5088    3.9402 H        13        0    0.0000
     84 H          28.8656    4.0807    3.7375 H        13        0    0.0000
     85 C          28.8777    5.4190    2.0116 C.3      14        0    0.0000
     86 C          30.0446    6.3056    2.4604 C.3      14        0    0.0000
     87 H          29.2383    4.6397    1.3288 H        14        0    0.0000
     88 H          28.1463    6.0148    1.4516 H        14        0    0.0000
     89 H          30.0524    7.2380    1.8825 H        14        0    0.0000
     90 H          29.9190    6.5883    3.5129 H        14        0    0.0000
     91 C          31.4310    5.5940    2.2903 C.3      15        0    0.0000
     92 C          32.5888    6.4414    2.8292 C.3      15        0    0.0000
     93 H          31.3986    4.6279    2.8092 H        15        0    0.0000
     94 H          31.5881    5.3753    1.2268 H        15        0    0.0000
     95 H          32.3540    7.5080    2.7262 H        15        0    0.0000
     96 H          32.7271    6.2513    3.9008 H        15        0    0.0000
     97 C          33.9370    6.1467    2.0856 C.3      16        0    0.0000
     98 C          35.1492    6.7102    2.8355 C.3      16        0    0.0000
     99 H          34.0426    5.0618    1.9614 H        16        0    0.0000
    100 H          33.8858    6.5757    1.0772 H        16        0    0.0000
    101 H          34.8297    7.4985    3.5283 H        16        0    0.0000
    102 H          35.6132    5.9245    3.4446 H        16        0    0.0000
    103 C          36.2283    7.2990    1.8628 C.3      17        0    0.0000
    104 C          37.3093    8.0916    2.6059 C.3      17        0    0.0000
    105 H          36.6854    6.4749    1.3011 H        17        0    0.0000
    106 H          35.7286    7.9422    1.1279 H        17        0    0.0000
    107 H          36.9251    9.0802    2.8863 H        17        0    0.0000
    108 H          37.5755    7.5807    3.5395 H        17        0    0.0000
    109 C          38.6060    8.2790    1.7451 C.3      18        0    0.0000
    110 C          39.4614    9.4541    2.2315 C.3      18        0    0.0000
    111 H          39.1892    7.3504    1.7775 H        18        0    0.0000
    112 H          38.3163    8.4327    0.6982 H        18        0    0.0000
    113 H          39.1412   10.3812    1.7402 H        18        0    0.0000
    114 H          39.3182    9.6028    3.3090 H        18        0    0.0000
    115 C          40.9878    9.2343    1.9502 C.3      19        0    0.0000
    116 C          41.3328    9.3884    0.4648 C.3      19        0    0.0000
    117 H          41.5643    9.9522    2.5467 H        19        0    0.0000
    118 H          41.2715    8.2341    2.3004 H        19        0    0.0000
    119 H          40.4301    9.2629   -0.1460 H        19        0    0.0000
    120 H          41.7075   10.4007    0.2688 H        19        0    0.0000
    121 C          42.4096    8.3510   -0.0057 C.3      20        0    0.0000
    122 C          42.5733    8.3343   -1.5295 C.3      20        0    0.0000
    123 H          43.3667    8.5931    0.4727 H        20        0    0.0000
    124 H          42.1214    7.3549    0.3525 H        20        0    0.0000
    125 H          41.6219    8.5891   -2.0128 H        20        0    0.0000
    126 H          43.2980    9.0979   -1.8384 H        20        0    0.0000
    127 C          43.0520    6.9392   -2.0605 C.3      21        0    0.0000
    128 C          44.5397    6.9372   -2.4288 C.3      21        0    0.0000
    129 H          42.8536    6.1815   -1.2923 H        21        0    0.0000
    130 H          42.4477    6.6672   -2.9347 H        21        0    0.0000
    131 H          44.7464    7.7252   -3.1635 H        21        0    0.0000
    132 H          45.1467    7.1646   -1.5437 H        21        0    0.0000
    133 C          45.0036    5.5613   -3.0196 C.3      22        0    0.0000
    134 C          46.1959    4.9737   -2.2565 C.3      22        0    0.0000
    135 H          44.1586    4.8621   -2.9932 H        22        0    0.0000
    136 H          45.2647    5.7001   -4.0761 H        22        0    0.0000
    137 H          47.1357    5.3475   -2.6815 H        22        0    0.0000
    138 H          46.1711    5.3016   -1.2098 H        22        0    0.0000
    139 C          46.2119    3.4067   -2.2948 C.3      23        0    0.0000
    140 C          46.7232    2.8636   -3.6337 C.3      23        0    0.0000
    141 H          46.8414    3.0393   -1.4748 H        23        0    0.0000
    142 H          45.1968    3.0378   -2.1022 H        23        0    0.0000
    143 H          46.3968    3.5155   -4.4534 H        23        0    0.0000
    144 H          47.8202    2.8665   -3.6465 H        23        0    0.0000
    145 C          46.2185    1.4064   -3.9154 C.3      24        0    0.0000
    146 C          47.3603    0.3841   -3.9052 C.3      24        0    0.0000
    147 H          45.4682    1.1399   -3.1607 H        24        0    0.0000
    148 H          45.7080    1.3905   -4.8864 H        24        0    0.0000
    149 H          47.7391    0.2331   -4.9237 H        24        0    0.0000
    150 H          48.1999    0.7638   -3.3099 H        24        0    0.0000
    151 C          46.9128   -1.0006   -3.3221 C.3      25        0    0.0000
    152 C          45.9897   -1.7629   -4.2791 C.3      25        0    0.0000
    153 H          47.8067   -1.5986   -3.1056 H        25        0    0.0000
    154 H          46.4058   -0.8334   -2.3637 H        25        0    0.0000
    155 H          45.5378   -1.0688   -4.9986 H        25        0    0.0000
    156 H          46.5695   -2.4885   -4.8629 H        25        0    0.0000
    157 C          44.8457   -2.5219   -3.5224 C.3      26        0    0.0000
    158 C          43.5350   -2.5379   -4.3167 C.3      26        0    0.0000
    159 H          45.1757   -3.5485   -3.3206 H        26        0    0.0000
    160 H          44.6889   -2.0440   -2.5475 H        26        0    0.0000
    161 H          43.2982   -1.5273   -4.6721 H        26        0    0.0000
    162 H          43.6430   -3.1681   -5.2082 H        26        0    0.0000
    163 C          42.3307   -3.0692   -3.4653 C.3      27        0    0.0000
    164 C          41.5821   -4.2085   -4.1656 C.3      27        0    0.0000
    165 H          42.7079   -3.4088   -2.4927 H        27        0    0.0000
    166 H          41.6454   -2.2366   -3.2640 H        27        0    0.0000
    167 H          41.2225   -3.8751   -5.1470 H        27        0    0.0000
    168 H          42.2627   -5.0493   -4.3485 H        27        0    0.0000
    169 C          40.3606   -4.7205   -3.3271 C.3      28        0    0.0000
    170 C          40.2493   -6.2491   -3.3366 C.3      28        0    0.0000
    171 H          40.4616   -4.3571   -2.2969 H        28        0    0.0000
    172 H          39.4431   -4.2741   -3.7301 H        28        0    0.0000
    173 H          39.8562   -6.5917   -4.3018 H        28        0    0.0000
    174 H          41.2433   -6.6993   -3.2236 H        28        0    0.0000
    175 C          39.3194   -6.7842   -2.1937 C.3      29        0    0.0000
    176 C          37.8745   -6.9821   -2.6652 C.3      29        0    0.0000
    177 H          39.7267   -7.7323   -1.8212 H        29        0    0.0000
    178 H          39.3479   -6.0779   -1.3547 H        29        0    0.0000
    179 H          37.5310   -6.0929   -3.2082 H        29        0    0.0000
    180 H          37.8202   -7.8217   -3.3691 H        29        0    0.0000
    181 C          36.8932   -7.2571   -1.4740 C.3      30        0    0.0000
    182 C          35.4257   -7.0750   -1.8765 C.3      30        0    0.0000
    183 H          37.0590   -8.2779   -1.1078 H        30        0    0.0000
    184 H          37.1431   -6.5812   -0.6468 H        30        0    0.0000
    185 H          35.3032   -6.1419   -2.4403 H        30        0    0.0000
    186 H          35.1147   -7.8890   -2.5431 H        30        0    0.0000
    187 C          34.4686   -7.0447   -0.6353 C.3      31        0    0.0000
    188 C          33.1235   -7.7211   -0.9224 C.3      31        0    0.0000
    189 H          34.9665   -7.5402    0.2073 H        31        0    0.0000
    190 H          34.3088   -6.0011   -0.3374 H        31        0    0.0000
    191 H          32.7044   -7.3410   -1.8623 H        31        0    0.0000
    192 H          33.2660   -8.8007   -1.0548 H        31        0    0.0000
    193 C          32.0831   -7.4858    0.2264 C.3      32        0    0.0000
    194 C          30.6469   -7.7781   -0.2219 C.3      32        0    0.0000
    195 H          32.3480   -8.1230    1.0793 H        32        0    0.0000
    196 H          32.1657   -6.4476    0.5711 H        32        0    0.0000
    197 H          30.4662   -7.3431   -1.2127 H        32        0    0.0000
    198 H          30.4965   -8.8603   -0.3208 H        32        0    0.0000
    199 C          29.5843   -7.2099    0.7809 C.3      33        0    0.0000
    200 C          28.1501   -7.3909    0.2717 C.3      33        0    0.0000
    201 H          29.7064   -7.7129    1.7481 H        33        0    0.0000
    202 H          29.7917   -6.1460    0.9506 H        33        0    0.0000
    203 H          28.0730   -7.0451   -0.7666 H        33        0    0.0000
    204 H          27.8830   -8.4550    0.2700 H        33        0    0.0000
    205 C          27.1072   -6.6097    1.1432 C.3      34        0    0.0000
    206 C          25.6639   -6.8818    0.7049 C.3      34        0    0.0000
    207 H          27.2410   -6.8939    2.1943 H        34        0    0.0000
    208 H          27.3244   -5.5364    1.0770 H        34        0    0.0000
    209 H          25.5564   -6.6968   -0.3711 H        34        0    0.0000
    210 H          25.4133   -7.9370    0.8698 H        34        0    0.0000
    211 C          24.6306   -5.9905    1.4765 C.3      35        0    0.0000
    212 C          23.2426   -6.0158    0.8271 C.3      35        0    0.0000
    213 H          24.5669   -6.3408    2.5142 H        35        0    0.0000
    214 H          25.0096   -4.9617    1.5141 H        35        0    0.0000
    215 H          23.3141   -5.7138   -0.2252 H        35        0    0.0000
    216 H          22.8421   -7.0371    0.8352 H        35        0    0.0000
    217 C          22.2280   -5.0694    1.5567 C.3      36        0    0.0000
    218 C          21.0146   -5.8295    2.1034 C.3      36        0    0.0000
    219 H          22.7490   -4.5550    2.3737 H        36        0    0.0000
    220 H          21.9003   -4.2933    0.8539 H        36        0    0.0000
    221 H          20.4028   -6.2073    1.2748 H        36        0    0.0000
    222 H          21.3457   -6.7052    2.6753 H        36        0    0.0000
    223 C          20.1181   -4.9332    3.0255 C.3      37        0    0.0000
    224 C          19.2238   -3.9837    2.2207 C.3      37        0    0.0000
    225 H          19.5023   -5.5830    3.6596 H        37        0    0.0000
    226 H          20.7666   -4.3589    3.6988 H        37        0    0.0000
    227 H          19.7722   -3.5948    1.3538 H        37        0    0.0000
    228 H          18.3564   -4.5276    1.8266 H        37        0    0.0000
    229 C          18.7148   -2.7756    3.0802 C.3      38        0    0.0000
    230 C          19.1626   -1.4261    2.5079 C.3      38        0    0.0000
    231 H          17.6199   -2.8165    3.1343 H        38        0    0.0000
    232 H          19.0855   -2.8906    4.1063 H        38        0    0.0000
    233 H          20.1234   -1.5373    1.9902 H        38        0    0.0000
    234 H          18.4403   -1.0764    1.7599 H        38        0    0.0000
    235 C          19.3110   -0.3296    3.6184 C.3      39        0    0.0000
    236 C          18.4561    0.9092    3.3293 C.3      39        0    0.0000
    237 H          19.0281   -0.7647    4.5850 H        39        0    0.0000
    238 H          20.3681   -0.0471    3.6974 H        39        0    0.0000
    239 H          18.1995    0.9488    2.2634 H        39        0    0.0000
    240 H          17.5088    0.8492    3.8794 H        39        0    0.0000
    241 C          19.1857    2.2396    3.7232 C.3      40        0    0.0000
    242 C          18.6652    3.4440    2.9311 C.3      40        0    0.0000
    243 H          19.0529    2.4107    4.7987 H        40        0    0.0000
    244 H          20.2627    2.1155    3.5547 H        40        0    0.0000
    245 H          18.1636    3.1044    2.0165 H        40        0    0.0000
    246 H          17.9142    3.9853    3.5198 H        40        0    0.0000
    247 C          19.8123    4.4379    2.5390 C.3      41        0    0.0000
    248 C          19.2804    5.8360    2.2047 C.3      41        0    0.0000
    249 H          20.5284    4.4962    3.3681 H        41        0    0.0000
    250 H          20.3575    4.0276    1.6800 H        41        0    0.0000
    251 H          18.5158    5.7700    1.4208 H        41        0    0.0000
    252 H          18.7925    6.2732    3.0847 H        41        0    0.0000
    253 C          20.4156    6.8040    1.7233 C.3      42        0    0.0000
    254 C          19.8627    8.0162    0.9658 C.3      42        0    0.0000
    255 H          20.9909    7.1363    2.5963 H        42        0    0.0000
    256 H          21.1092    6.2448    1.0832 H        42        0    0.0000
    257 H          19.1705    7.6860    0.1813 H        42        0    0.0000
    258 H          19.2858    8.6542    1.6468 H        42        0    0.0000
    259 C          20.9980    8.8749    0.3092 C.3      43        0    0.0000
    260 C          20.7645    9.0985   -1.1890 C.3      43        0    0.0000
    261 H          21.0573    9.8393    0.8287 H        43        0    0.0000
    262 H          21.9595    8.3714    0.4690 H        43        0    0.0000
    263 H          20.2761    8.2201   -1.6288 H        43        0    0.0000
    264 H          20.0848    9.9461   -1.3414 H        43        0    0.0000
    265 C          22.0990    9.3754   -1.9635 C.3      44        0    0.0000
    266 C          22.7313   10.7152   -1.5706 C.3      44        0    0.0000
    267 H          22.8002    8.5557   -1.7640 H        44        0    0.0000
    268 H          21.8927    9.3584   -3.0408 H        44        0    0.0000
    269 H          22.2253   11.5372   -2.0920 H        44        0    0.0000
    270 H          22.5975   10.8937   -0.4965 H        44        0    0.0000
    271 C          24.2618   10.7707   -1.9053 C.3      45        0    0.0000
    272 C          24.5225   11.1036   -3.3784 C.3      45        0    0.0000
    273 H          24.7378   11.5197   -1.2604 H        45        0    0.0000
    274 H          24.7143    9.8038   -1.6523 H        45        0    0.0000
    275 H          23.7822   10.6023   -4.0142 H        45        0    0.0000
    276 H          24.4045   12.1812   -3.5471 H        45        0    0.0000
    277 C          25.9580   10.6743   -3.8395 C.3      46        0    0.0000
    278 C          25.9262    9.4858   -4.8067 C.3      46        0    0.0000
    279 H          26.4484   11.5329   -4.3146 H        46        0    0.0000
    280 H          26.5534   10.4222   -2.9532 H        46        0    0.0000
    281 H          25.5221    8.6000   -4.3011 H        46        0    0.0000
    282 H          25.2549    9.7025   -5.6470 H        46        0    0.0000
    283 C          27.3474    9.1411   -5.3713 C.3      47        0    0.0000
    284 C          27.9165    7.8534   -4.7653 C.3      47        0    0.0000
    285 H          27.2810    9.0461   -6.4622 H        47        0    0.0000
    286 H          28.0219    9.9822   -5.1688 H        47        0    0.0000
    287 H          27.7572    7.8461   -3.6799 H        47        0    0.0000
    288 H          27.3855    6.9817   -5.1675 H        47        0    0.0000
    289 C          29.4487    7.6884   -5.0523 C.3      48        0    0.0000
    290 C          30.0788    6.5684   -4.2170 C.3      48        0    0.0000
    291 H          29.5883    7.4845   -6.1212 H        48        0    0.0000
    292 H          29.9519    8.6409   -4.8450 H        48        0    0.0000
    293 H          30.2827    6.9266   -3.2003 H        48        0    0.0000
    294 H          29.3772    5.7305   -4.1210 H        48        0    0.0000
    295 C          31.4148    6.0396   -4.8437 C.3      49        0    0.0000
    296 C          32.4616    5.6984   -3.7774 C.3      49        0    0.0000
    297 H          31.1939    5.1531   -5.4511 H        49        0    0.0000
    298 H          31.8096    6.8003   -5.5286 H        49        0    0.0000
    299 H          32.7925    6.6126   -3.2692 H        49        0    0.0000
    300 H          32.0188    5.0532   -3.0086 H        49        0    0.0000
    301 C          33.7137    4.9759   -4.3838 C.3      50        0    0.0000
    302 C          34.7479    4.6098   -3.3136 C.3      50        0    0.0000
    303 H          33.3805    4.0726   -4.9096 H        50        0    0.0000
    304 H          34.1684    5.6299   -5.1382 H        50        0    0.0000
    305 H          35.4318    5.4514   -3.1478 H        50        0    0.0000
    306 H          34.2470    4.4177   -2.3566 H        50        0    0.0000
    307 C          35.5879    3.3460   -3.7068 C.3      51        0    0.0000
    308 C          36.6826    3.0338   -2.6806 C.3      51        0    0.0000
    309 H          34.9108    2.4886   -3.8073 H        51        0    0.0000
    310 H          36.0348    3.5119   -4.6949 H        51        0    0.0000
    311 H          37.4058    2.3267   -3.1055 H        51        0    0.0000
    312 H          37.2404    3.9463   -2.4362 H        51        0    0.0000
    313 C          36.1008    2.4275   -1.3572 C.3      52        0    0.0000
    314 C          37.1702    1.7060   -0.5296 C.3      52        0    0.0000
    315 H          35.6494    3.2346   -0.7670 H        52        0    0.0000
    316 H          35.2908    1.7330   -1.6126 H        52        0    0.0000
    317 H          36.7146    1.2499    0.3581 H        52        0    0.0000
    318 H          37.6096    0.8880   -1.1137 H        52        0    0.0000
    319 C          38.3168    2.6711   -0.0697 C.3      53        0    0.0000
    320 C          39.3458    1.9672    0.8218 C.3      53        0    0.0000
    321 H          38.8092    3.0841   -0.9588 H        53        0    0.0000
    322 H          37.8719    3.5186    0.4663 H        53        0    0.0000
    323 H          39.6427    2.6269    1.6466 H        53        0    0.0000
    324 H          38.9005    1.0741    1.2774 H        53        0    0.0000
    325 C          40.6288    1.5429    0.0272 C.3      54        0    0.0000
    326 C          41.8764    1.5040    0.9165 C.3      54        0    0.0000
    327 H          40.4564    0.5571   -0.4223 H        54        0    0.0000
    328 H          40.7796    2.2452   -0.8020 H        54        0    0.0000
    329 H          42.7298    1.9454    0.3869 H        54        0    0.0000
    330 H          41.7160    2.1108    1.8163 H        54        0    0.0000
    331 C          42.2511    0.0452    1.3510 C.3      55        0    0.0000
    332 C          43.5422   -0.0018    2.1755 C.3      55        0    0.0000
    333 H          41.4197   -0.3760    1.9297 H        55        0    0.0000
    334 H          42.3558   -0.5755    0.4525 H        55        0    0.0000
    335 H          44.3454    0.5266    1.6471 H        55        0    0.0000
    336 H          43.3979    0.5186    3.1305 H        55        0    0.0000
    337 C          44.0088   -1.4700    2.4657 C.3      56        0    0.0000
    338 C          45.4025   -1.5217    3.1013 C.3      56        0    0.0000
    339 H          43.2760   -1.9499    3.1263 H        56        0    0.0000
    340 H          44.0029   -2.0352    1.5254 H        56        0    0.0000
    341 H          45.4067   -2.2267    3.9418 H        56        0    0.0000
    342 H          46.1341   -1.8945    2.3737 H        56        0    0.0000
    343 C          45.8728   -0.1180    3.6169 C.3      57        0    0.0000
    344 C          47.3016   -0.1514    4.1705 C.3      57        0    0.0000
    345 H          45.8056    0.6023    2.7921 H        57        0    0.0000
    346 H          45.1768    0.2252    4.3923 H        57        0    0.0000
    347 H          47.9921   -0.5304    3.4069 H        57        0    0.0000
    348 H          47.6328    0.8647    4.4182 H        57        0    0.0000
    349 C          47.4219   -1.0482    5.4505 C.3      58        0    0.0000
    350 C          48.8055   -1.6949    5.5787 C.3      58        0    0.0000
    351 H          47.2108   -0.4334    6.3342 H        58        0    0.0000
    352 H          46.6464   -1.8233    5.4135 H        58        0    0.0000
    353 H          49.0047   -1.9527    6.6262 H        58        0    0.0000
    354 H          48.8359   -2.6338    5.0119 H        58        0    0.0000
    355 C          49.9502   -0.7561    5.0629 C.3      59        0    0.0000
    356 C          51.1935   -1.5404    4.6292 C.3      59        0    0.0000
    357 H          49.5687   -0.1616    4.2235 H        59        0    0.0000
    358 H          50.2112   -0.0470    5.8583 H        59        0    0.0000
    359 H          51.6601   -2.0174    5.5000 H        59        0    0.0000
    360 H          50.9087   -2.3475    3.9429 H        59        0    0.0000
    361 C          52.2551   -0.6281    3.9234 C.3      60        0    0.0000
    362 C          53.4053   -1.4386    3.3158 C.3      60        0    0.0000
    363 H          51.7546   -0.0420    3.1428 H        60        0    0.0000
    364 H          52.6463    0.0901    4.6547 H        60        0    0.0000
    365 H          53.5711   -2.3525    3.8997 H        60        0    0.0000
    366 H          53.1448   -1.7574    2.2990 H        60        0    0.0000
    367 C          54.7433   -0.6234    3.2625 C.3      61        0    0.0000
    368 C          55.9256   -1.4776    2.7919 C.3      61        0    0.0000
    369 H          54.6083    0.2342    2.5919 H        61        0    0.0000
    370 H          54.9481   -0.2144    4.2597 H        61        0    0.0000
    371 H          56.0762   -2.3214    3.4767 H        61        0    0.0000
    372 H          55.7104   -1.9069    1.8055 H        61        0    0.0000
    373 C          57.2564   -0.6537    2.7050 C.3      62        0    0.0000
    374 C          58.3446   -1.3896    1.9156 C.3      62        0    0.0000
    375 H          57.0425    0.3153    2.2371 H        62        0    0.0000
    376 H          57.6080   -0.4415    3.7223 H        62        0    0.0000
    377 H          58.5090   -2.3871    2.3417 H        62        0    0.0000
    378 H          58.0205   -1.5396    0.8783 H        62        0    0.0000
    379 C          59.7053   -0.6111    1.9122 C.3      63        0    0.0000
    380 C          60.8324   -1.4142    1.2535 C.3      63        0    0.0000
    381 H          59.5661    0.3420    1.3871 H        63        0    0.0000
    382 H          59.9742   -0.3645    2.9468 H        63        0    0.0000
    383 H          60.8892   -2.4160    1.6970 H        63        0    0.0000
    384 H          60.6206   -1.5538    0.1862 H        63        0    0.0000
    385 C          62.2271   -0.7148    1.4047 C.3      64        0    0.0000
    386 C          63.2792   -1.3067    0.4604 C.3      64        0    0.0000
    387 H          62.1076    0.3582    1.2096 H        64        0    0.0000
    388 H          62.5597   -0.8105    2.4458 H        64        0    0.0000
    389 H          62.8743   -1.3776   -0.5568 H        64        0    0.0000
    390 H          64.1518   -0.6439    0.4066 H        64        0    0.0000
    391 C          63.7529   -2.7299    0.9160 C.3      65        0    0.0000
    392 C          64.7478   -3.3538   -0.0689 C.3      65        0    0.0000
    393 H          64.2087   -2.6492    1.9107 H        65        0    0.0000
    394 H          62.8740   -3.3774    1.0238 H        65        0    0.0000
    395 H          64.6717   -4.4478   -0.0380 H        65        0    0.0000
    396 H          64.5030   -3.0498   -1.0941 H        65        0    0.0000
    397 C          66.2282   -2.9414    0.2407 C.3      66        0    0.0000
    398 C          66.9690   -2.4545   -1.0095 C.3      66        0    0.0000
    399 H          66.2236   -2.1548    1.0054 H        66        0    0.0000
    400 H          66.7511   -3.8016    0.6767 H        66        0    0.0000
    401 H          68.0379   -2.6881   -0.9282 H        66        0    0.0000
    402 H          66.5977   -2.9828   -1.8964 H        66        0    0.0000
    403 C          66.8046   -0.9119   -1.2345 C.3      67        0    0.0000
    404 C          66.7634   -0.5429   -2.7215 C.3      67        0    0.0000
    405 H          65.8848   -0.5782   -0.7385 H        67        0    0.0000
    406 H          67.6351   -0.3921   -0.7409 H        67        0    0.0000
    407 H          67.6833   -0.8765   -3.2176 H        67        0    0.0000
    408 H          65.9329   -1.0627   -3.2152 H        67        0    0.0000
    409 H          66.6491    0.5297   -2.8780 H        67        0    0.0000
    410 H          -1.7762    3.2820    0.9197 H         0        0    0.0000
@<TRIPOS>BOND
     1     1     2      1
     2     1     3      1
     3     1     4      1
     4     1   410      H
     5     2     5      1
     6     2     6      1
     7     2     7      1
     8     7     8      1
     9     7     9      1
    10     7    10      1
    11     8    11      1
    12     8    12      1
    13     8    13      1
    14    13    14      1
    15    13    15      1
    16    13    16      1
    17    14    17      1
    18    14    18      1
    19    14    19      1
    20    19    20      1
    21    19    21      1
    22    19    22      1
    23    20    23      1
    24    20    24      1
    25    20    25      1
    26    25    26      1
    27    25    27      1
    28    25    28      1
    29    26    29      1
    30    26    30      1
    31    26    31      1
    32    31    32      1
    33    31    33      1
    34    31    34      1
    35    32    35      1
    36    32    36      1
    37    32    37      1
    38    37    38      1
    39    37    39      1
    40    37    40      1
    41    38    41      1
    42    38    42      1
    43    38    43      1
    44    43    44      1
    45    43    45      1
    46    43    46      1
    47    44    47      1
    48    44    48      1
    49    44    49      1
    50    49    50      1
    51    49    51      1
    52    49    52      1
    53    50    53      1
    54    50    54      1
    55    50    55      1
    56    55    56      1
    57    55    57      1
    58    55    58      1
    59    56    59      1
    60    56    60      1
    61    56    61      1
    62    61    62      1
    63    61    63      1
    64    61    64      1
    65    62    65      1
    66    62    66      1
    67    62    67      1
    68    67    68      1
    69    67    69      1
    70    67    70      1
    71    68    71      1
    72    68    72      1
    73    68    73      1
    74    73    74      1
    75    73    75      1
    76    73    76      1
    77    74    77      1
    78    74    78      1
    79    74    79      1
    80    79    80      1
    81    79    81      1
    82    79    82      1
    83    80    83      1
    84    80    84      1
    85    80    85      1
    86    85    86      1
    87    85    87      1
    88    85    88      1
    89    86    89      1
    90    86    90      1
    91    86    91      1
    92    91    92      1
    93    91    93      1
    94    91    94      1
    95    92    95      1
    96    92    96      1
    97    92    97      1
    98    97    98      1
    99    97    99      1
   100    97   100      1
   101    98   101      1
   102    98   102      1
   103    98   103      1
   104   103   104      1
   105   103   105      1
   106   103   106      1
   107   104   107      1
   108   104   108      1
   109   104   109      1
   110   109   110      1
   111   109   111      1
   112   109   112      1
   113   110   113      1
   114   110   114      1
   115   110   115      1
   116   115   116      1
   117   115   117      1
   118   115   118      1
   119   116   119      1
   120   116   120      1
   121   116   121      1
   122   121   122      1
   123   121   123      1
   124   121   124      1
   125   122   125      1
   126   122   126      1
   127   122   127      1
   128   127   128      1
   129   127   129      1
   130   127   130      1
   131   128   131      1
   132   128   132      1
   133   128   133      1
   134   133   134      1
   135   133   135      1
   136   133   136      1
   137   134   137      1
   138   134   138      1
   139   134   139      1
   140   139   140      1
   141   139   141      1
   142   139   142      1
   143   140   143      1
   144   140   144      1
   145   140   145      1
   146   145   146      1
   147   145   147      1
   148   145   148      1
   149   146   149      1
   150   146   150      1
   151   146   151      1
   152   151   152      1
   153   151   153      1
   154   151   154      1
   155   152   155      1
   156   152   156      1
   157   152   157      1
   158   157   158      1
   159   157   159      1
   160   157   160      1
   161   158   161      1
   162   158   162      1
   163   158   163      1
   164   163   164      1
   165   163   165      1
   166   163   166      1
   167   164   167      1
   168   164   168      1
   169   164   169      1
   170   169   170      1
   171   169   171      1
   172   169   172      1
   173   170   173      1
   174   170   174      1
   175   170   175      1
   176   175   176      1
   177   175   177      1
   178   175   178      1
   179   176   179      1
   180   176   180      1
   181   176   181      1
   182   181   182      1
   183   181   183      1
   184   181   184      1
   185   182   185      1
   186   182   186      1
   187   182   187      1
   188   187   188      1
   189   187   189      1
   190   187   190      1
   191   188   191      1
   192   188   192      1
   193   188   193      1
   194   193   194      1
   195   193   195      1
   196   193   196      1
   197   194   197      1
   198   194   198      1
   199   194   199      1
   200   199   200      1
   201   199   201      1
   202   199   202      1
   203   200   203      1
   204   200   204      1
   205   200   205      1
   206   205   206      1
   207   205   207      1
   208   205   208      1
   209   206   209      1
   210   206   210      1
   211   206   211      1
   212   211   212      1
   213   211   213      1
   214   211   214      1
   215   212   215      1
   216   212   216      1
   217   212   217      1
   218   217   218      1
   219   217   219      1
   220   217   220      1
   221   218   221      1
   222   218   222      1
   223   218   223      1
   224   223   224      1
   225   223   225      1
   226   223   226      1
   227   224   227      1
   228   224   228      1
   229   224   229      1
   230   229   230      1
   231   229   231      1
   232   229   232      1
   233   230   233      1
   234   230   234      1
   235   230   235      1
   236   235   236      1
   237   235   237      1
   238   235   238      1
   239   236   239      1
   240   236   240      1
   241   236   241      1
   242   241   242      1
   243   241   243      1
   244   241   244      1
   245   242   245      1
   246   242   246      1
   247   242   247      1
   248   247   248      1
   249   247   249      1
   250   247   250      1
   251   248   251      1
   252   248   252      1
   253   248   253      1
   254   253   254      1
   255   253   255      1
   256   253   256      1
   257   254   257      1
   258   254   258      1
   259   254   259      1
   260   259   260      1
   261   259   261      1
   262   259   262      1
   263   260   263      1
   264   260   264      1
   265   260   265      1
   266   265   266      1
   267   265   267      1
   268   265   268      1
   269   266   269      1
   270   266   270      1
   271   266   271      1
   272   271   272      1
   273   271   273      1
   274   271   274      1
   275   272   275      1
   276   272   276      1
   277   272   277      1
   278   277   278      1
   279   277   279      1
   280   277   280      1
   281   278   281      1
   282   278   282      1
   283   278   283      1
   284   283   284      1
   285   283   285      1
   286   283   286      1
   287   284   287      1
   288   284   288      1
   289   284   289      1
   290   289   290      1
   291   289   291      1
   292   289   292      1
   293   290   293      1
   294   290   294      1
   295   290   295      1
   296   295   296      1
   297   295   297      1
   298   295   298      1
   299   296   299      1
   300   296   300      1
   301   296   301      1
   302   301   302      1
   303   301   303      1
   304   301   304      1
   305   302   305      1
   306   302   306      1
   307   302   307      1
   308   307   308      1
   309   307   309      1
   310   307   310      1
   311   308   311      1
   312   308   312      1
   313   308   313      1
   314   313   314      1
   315   313   315      1
   316   313   316      1
   317   314   317      1
   318   314   318      1
   319   314   319      1
   320   319   320      1
   321   319   321      1
   322   319   322      1
   323   320   323      1
   324   320   324      1
   325   320   325      1
   326   325   326      1
   327   325   327      1
   328   325   328      1
   329   326   329      1
   330   326   330      1
   331   326   331      1
   332   331   332      1
   333   331   333      1
   334   331   334      1
   335   332   335      1
   336   332   336      1
   337   332   337      1
   338   337   338      1
   339   337   339      1
   340   337   340      1
   341   338   341      1
   342   338   342      1
   343   338   343      1
   344   343   344      1
   345   343   345      1
   346   343   346      1
   347   344   347      1
   348   344   348      1
   349   344   349      1
   350   349   350      1
   351   349   351      1
   352   349   352      1
   353   350   353      1
   354   350   354      1
   355   350   355      1
   356   355   356      1
   357   355   357      1
   358   355   358      1
   359   356   359      1
   360   356   360      1
   361   356   361      1
   362   361   362      1
   363   361   363      1
   364   361   364      1
   365   362   365      1
   366   362   366      1
   367   362   367      1
   368   367   368      1
   369   367   369      1
   370   367   370      1
   371   368   371      1
   372   368   372      1
   373   368   373      1
   374   373   374      1
   375   373   375      1
   376   373   376      1
   377   374   377      1
   378   374   378      1
   379   374   379      1
   380   379   380      1
   381   379   381      1
   382   379   382      1
   383   380   383      1
   384   380   384      1
   385   380   385      1
   386   385   386      1
   387   385   387      1
   388   385   388      1
   389   386   389      1
   390   386   390      1
   391   386   391      1
   392   391   392      1
   393   391   393      1
   394   391   394      1
   395   392   395      1
   396   392   396      1
   397   392   397      1
   398   397   398      1
   399   397   399      1
   400   397   400      1
   401   398   401      1
   402   398   402      1
   403   398   403      1
   404   403   404      1
   405   403   405      1
   406   403   406      1
   407   404   407      1
   408   404   408      1
   409   404   409      H
